inputs/GSO_Base_Network/Industrial/Transformers.dss
New Transformer.ctrafo(cramaee():s_ncctt1570->s_ncctt1570_bt) phases=1 windings=3 %loadloss=0.798816 %Noloadloss=0.472 normhkva=27.5 wdg=1 conn=wye bus=s_ncctt1570.2 Kv=7.19956 kva=25.0 EmergHKVA=37.5 %r=0.266272 wdg=2 conn=wye bus=s_ncctt1570_bt.1.0 Kv=0.120089 kva=25.0 EmergHKVA=37.5 %r=0.532544 wdg=3 conn=wye bus=s_ncctt1570_bt.0.2 Kv=0.120089 kva=25.0 EmergHKVA=37.5 %r=0.532544 XHL=2.4 XLT=2.4 XHT=1.6

New Transformer.ctrafo(cramaee():s_ncctt258->s_ncctt258_bt) phases=1 windings=3 %loadloss=0.798816 %Noloadloss=0.472 normhkva=27.5 wdg=1 conn=wye bus=s_ncctt258.3 Kv=7.19956 kva=25.0 EmergHKVA=37.5 %r=0.266272 wdg=2 conn=wye bus=s_ncctt258_bt.1.0 Kv=0.120089 kva=25.0 EmergHKVA=37.5 %r=0.532544 wdg=3 conn=wye bus=s_ncctt258_bt.0.2 Kv=0.120089 kva=25.0 EmergHKVA=37.5 %r=0.532544 XHL=2.4 XLT=2.4 XHT=1.6

New Transformer.ctrafo(cramaee():s_ncctt1087->s_ncctt1087_bt) phases=1 windings=3 %loadloss=0.798816 %Noloadloss=0.472 normhkva=27.5 wdg=1 conn=wye bus=s_ncctt1087.3 Kv=7.19956 kva=25.0 EmergHKVA=37.5 %r=0.266272 wdg=2 conn=wye bus=s_ncctt1087_bt.1.0 Kv=0.120089 kva=25.0 EmergHKVA=37.5 %r=0.532544 wdg=3 conn=wye bus=s_ncctt1087_bt.0.2 Kv=0.120089 kva=25.0 EmergHKVA=37.5 %r=0.532544 XHL=2.4 XLT=2.4 XHT=1.6

New Transformer.ctrafo(cramaee():s_ncctt1597->s_ncctt1597_bt) phases=1 windings=3 %loadloss=0.798816 %Noloadloss=0.37 normhkva=55.0 wdg=1 conn=wye bus=s_ncctt1597.1 Kv=7.19956 kva=50.0 EmergHKVA=75.0 %r=0.266272 wdg=2 conn=wye bus=s_ncctt1597_bt.1.0 Kv=0.120089 kva=50.0 EmergHKVA=75.0 %r=0.532544 wdg=3 conn=wye bus=s_ncctt1597_bt.0.2 Kv=0.120089 kva=50.0 EmergHKVA=75.0 %r=0.532544 XHL=2.4 XLT=2.4 XHT=1.6

New Transformer.ctrafo(cramaee():s_ncctt306->s_ncctt306_bt) phases=1 windings=3 %loadloss=0.798816 %Noloadloss=0.472 normhkva=27.5 wdg=1 conn=wye bus=s_ncctt306.1 Kv=7.19956 kva=25.0 EmergHKVA=37.5 %r=0.266272 wdg=2 conn=wye bus=s_ncctt306_bt.1.0 Kv=0.120089 kva=25.0 EmergHKVA=37.5 %r=0.532544 wdg=3 conn=wye bus=s_ncctt306_bt.0.2 Kv=0.120089 kva=25.0 EmergHKVA=37.5 %r=0.532544 XHL=2.4 XLT=2.4 XHT=1.6

New Transformer.ctrafo(cramaee():s_ncctt698->s_ncctt698_bt) phases=3 windings=2 %loadloss=2.1568 %Noloadloss=0.516667 normhkva=165.0 wdg=1 conn=wye Kv=12.47 kva=150.0 EmergHKVA=225.0 %R=1.0784 bus=s_ncctt698 wdg=2 conn=wye Kv=0.48 kva=150.0 EmergHKVA=225.0 %R=1.0784 bus=s_ncctt698_bt XHL=3.39

New Transformer.ctrafo(cramaee():s_ncctt1137->s_ncctt1137_bt) phases=1 windings=3 %loadloss=0.798816 %Noloadloss=0.472 normhkva=27.5 wdg=1 conn=wye bus=s_ncctt1137.3 Kv=7.19956 kva=25.0 EmergHKVA=37.5 %r=0.266272 wdg=2 conn=wye bus=s_ncctt1137_bt.1.0 Kv=0.120089 kva=25.0 EmergHKVA=37.5 %r=0.532544 wdg=3 conn=wye bus=s_ncctt1137_bt.0.2 Kv=0.120089 kva=25.0 EmergHKVA=37.5 %r=0.532544 XHL=2.4 XLT=2.4 XHT=1.6

New Transformer.ctrafo(cramaee():s_ncctt1455->s_ncctt1455_bt) phases=1 windings=3 %loadloss=0.798816 %Noloadloss=0.472 normhkva=27.5 wdg=1 conn=wye bus=s_ncctt1455.3 Kv=7.19956 kva=25.0 EmergHKVA=37.5 %r=0.266272 wdg=2 conn=wye bus=s_ncctt1455_bt.1.0 Kv=0.120089 kva=25.0 EmergHKVA=37.5 %r=0.532544 wdg=3 conn=wye bus=s_ncctt1455_bt.0.2 Kv=0.120089 kva=25.0 EmergHKVA=37.5 %r=0.532544 XHL=2.4 XLT=2.4 XHT=1.6

New Transformer.ctrafo(cramaee():s_ncctt510->s_ncctt510_bt) phases=3 windings=2 %loadloss=1.61095 %Noloadloss=0.62 normhkva=110.0 wdg=1 conn=wye Kv=12.47 kva=100.0 EmergHKVA=150.0 %R=0.805475 bus=s_ncctt510 wdg=2 conn=wye Kv=0.48 kva=100.0 EmergHKVA=150.0 %R=0.805475 bus=s_ncctt510_bt XHL=3.29

New Transformer.ctrafo(cramaee():s_ncctt1462->s_ncctt1462_bt) phases=1 windings=3 %loadloss=0.798816 %Noloadloss=0.472 normhkva=27.5 wdg=1 conn=wye bus=s_ncctt1462.2 Kv=7.19956 kva=25.0 EmergHKVA=37.5 %r=0.266272 wdg=2 conn=wye bus=s_ncctt1462_bt.1.0 Kv=0.120089 kva=25.0 EmergHKVA=37.5 %r=0.532544 wdg=3 conn=wye bus=s_ncctt1462_bt.0.2 Kv=0.120089 kva=25.0 EmergHKVA=37.5 %r=0.532544 XHL=2.4 XLT=2.4 XHT=1.6

New Transformer.ctrafo(cramaee():s_ncctt1035->s_ncctt1035_bt) phases=3 windings=2 %loadloss=1.74408 %Noloadloss=0.6 normhkva=82.5 wdg=1 conn=wye Kv=12.47 kva=75.0 EmergHKVA=112.5 %R=0.87204 bus=s_ncctt1035 wdg=2 conn=wye Kv=0.48 kva=75.0 EmergHKVA=112.5 %R=0.87204 bus=s_ncctt1035_bt XHL=3.24

New Transformer.ctrafo(cramaee():s_ncctt950->s_ncctt950_bt) phases=3 windings=2 %loadloss=1.61095 %Noloadloss=0.62 normhkva=110.0 wdg=1 conn=wye Kv=12.47 kva=100.0 EmergHKVA=150.0 %R=0.805475 bus=s_ncctt950 wdg=2 conn=wye Kv=0.48 kva=100.0 EmergHKVA=150.0 %R=0.805475 bus=s_ncctt950_bt XHL=3.29

New Transformer.ctrafo(cramaee():s_ncctt63->s_ncctt63_bt) phases=1 windings=3 %loadloss=0.798816 %Noloadloss=0.37 normhkva=55.0 wdg=1 conn=wye bus=s_ncctt63.2 Kv=7.19956 kva=50.0 EmergHKVA=75.0 %r=0.266272 wdg=2 conn=wye bus=s_ncctt63_bt.1.0 Kv=0.120089 kva=50.0 EmergHKVA=75.0 %r=0.532544 wdg=3 conn=wye bus=s_ncctt63_bt.0.2 Kv=0.120089 kva=50.0 EmergHKVA=75.0 %r=0.532544 XHL=2.4 XLT=2.4 XHT=1.6

New Transformer.ctrafo(cramaee():s_ncctt1295->s_ncctt1295_bt) phases=3 windings=2 %loadloss=1.74408 %Noloadloss=0.6 normhkva=82.5 wdg=1 conn=wye Kv=12.47 kva=75.0 EmergHKVA=112.5 %R=0.87204 bus=s_ncctt1295 wdg=2 conn=wye Kv=0.48 kva=75.0 EmergHKVA=112.5 %R=0.87204 bus=s_ncctt1295_bt XHL=3.24

New Transformer.ctrafo(cramaee():s_ncctt674->s_ncctt674_bt) phases=3 windings=2 %loadloss=1.74408 %Noloadloss=0.6 normhkva=82.5 wdg=1 conn=wye Kv=12.47 kva=75.0 EmergHKVA=112.5 %R=0.87204 bus=s_ncctt674 wdg=2 conn=wye Kv=0.48 kva=75.0 EmergHKVA=112.5 %R=0.87204 bus=s_ncctt674_bt XHL=3.24

New Transformer.ctrafo(cramaee():s_ncctt783->s_ncctt783_bt) phases=3 windings=2 %loadloss=2.1568 %Noloadloss=0.516667 normhkva=165.0 wdg=1 conn=wye Kv=12.47 kva=150.0 EmergHKVA=225.0 %R=1.0784 bus=s_ncctt783 wdg=2 conn=wye Kv=0.48 kva=150.0 EmergHKVA=225.0 %R=1.0784 bus=s_ncctt783_bt XHL=3.39

New Transformer.ctrafo(cramaee():s_ncctt126->s_ncctt126_bt) phases=1 windings=3 %loadloss=0.798816 %Noloadloss=0.37 normhkva=55.0 wdg=1 conn=wye bus=s_ncctt126.3 Kv=7.19956 kva=50.0 EmergHKVA=75.0 %r=0.266272 wdg=2 conn=wye bus=s_ncctt126_bt.1.0 Kv=0.120089 kva=50.0 EmergHKVA=75.0 %r=0.532544 wdg=3 conn=wye bus=s_ncctt126_bt.0.2 Kv=0.120089 kva=50.0 EmergHKVA=75.0 %r=0.532544 XHL=2.4 XLT=2.4 XHT=1.6

New Transformer.ctrafo(cramaee():s_ncctt582->s_ncctt582_bt) phases=3 windings=2 %loadloss=1.4645 %Noloadloss=0.266 normhkva=550.0 wdg=1 conn=wye Kv=12.47 kva=500.0 EmergHKVA=750.0 %R=0.73225 bus=s_ncctt582 wdg=2 conn=wye Kv=0.48 kva=500.0 EmergHKVA=750.0 %R=0.73225 bus=s_ncctt582_bt XHL=4.36

New Transformer.ctrafo(cramaee():s_ncctt1095->s_ncctt1095_bt) phases=3 windings=2 %loadloss=1.4645 %Noloadloss=0.266 normhkva=550.0 wdg=1 conn=wye Kv=12.47 kva=500.0 EmergHKVA=750.0 %R=0.73225 bus=s_ncctt1095 wdg=2 conn=wye Kv=0.48 kva=500.0 EmergHKVA=750.0 %R=0.73225 bus=s_ncctt1095_bt XHL=4.36

New Transformer.ctrafo(cramaee():s_ncctt120->s_ncctt120_bt) phases=1 windings=3 %loadloss=0.798816 %Noloadloss=0.472 normhkva=27.5 wdg=1 conn=wye bus=s_ncctt120.2 Kv=7.19956 kva=25.0 EmergHKVA=37.5 %r=0.266272 wdg=2 conn=wye bus=s_ncctt120_bt.1.0 Kv=0.120089 kva=25.0 EmergHKVA=37.5 %r=0.532544 wdg=3 conn=wye bus=s_ncctt120_bt.0.2 Kv=0.120089 kva=25.0 EmergHKVA=37.5 %r=0.532544 XHL=2.4 XLT=2.4 XHT=1.6

New Transformer.ctrafo(cramaee():s_ncctt1302->s_ncctt1302_bt) phases=1 windings=3 %loadloss=0.798816 %Noloadloss=0.37 normhkva=55.0 wdg=1 conn=wye bus=s_ncctt1302.3 Kv=7.19956 kva=50.0 EmergHKVA=75.0 %r=0.266272 wdg=2 conn=wye bus=s_ncctt1302_bt.1.0 Kv=0.120089 kva=50.0 EmergHKVA=75.0 %r=0.532544 wdg=3 conn=wye bus=s_ncctt1302_bt.0.2 Kv=0.120089 kva=50.0 EmergHKVA=75.0 %r=0.532544 XHL=2.4 XLT=2.4 XHT=1.6

New Transformer.ctrafo(cramaee():s_ncctt1573->s_ncctt1573_bt) phases=3 windings=2 %loadloss=1.74408 %Noloadloss=0.6 normhkva=82.5 wdg=1 conn=wye Kv=12.47 kva=75.0 EmergHKVA=112.5 %R=0.87204 bus=s_ncctt1573 wdg=2 conn=wye Kv=0.48 kva=75.0 EmergHKVA=112.5 %R=0.87204 bus=s_ncctt1573_bt XHL=3.24

New Transformer.ctrafo(cramaee():s_ncctt856->s_ncctt856_bt) phases=3 windings=2 %loadloss=1.4645 %Noloadloss=0.266 normhkva=550.0 wdg=1 conn=wye Kv=12.47 kva=500.0 EmergHKVA=750.0 %R=0.73225 bus=s_ncctt856 wdg=2 conn=wye Kv=0.48 kva=500.0 EmergHKVA=750.0 %R=0.73225 bus=s_ncctt856_bt XHL=4.36

New Transformer.ctrafo(cramaee():s_ncctt1494->s_ncctt1494_bt) phases=1 windings=3 %loadloss=0.798816 %Noloadloss=0.472 normhkva=27.5 wdg=1 conn=wye bus=s_ncctt1494.2 Kv=7.19956 kva=25.0 EmergHKVA=37.5 %r=0.266272 wdg=2 conn=wye bus=s_ncctt1494_bt.1.0 Kv=0.120089 kva=25.0 EmergHKVA=37.5 %r=0.532544 wdg=3 conn=wye bus=s_ncctt1494_bt.0.2 Kv=0.120089 kva=25.0 EmergHKVA=37.5 %r=0.532544 XHL=2.4 XLT=2.4 XHT=1.6

New Transformer.ctrafo(cramaee():s_ncctt380->s_ncctt380_bt) phases=3 windings=2 %loadloss=1.74408 %Noloadloss=0.6 normhkva=82.5 wdg=1 conn=wye Kv=12.47 kva=75.0 EmergHKVA=112.5 %R=0.87204 bus=s_ncctt380 wdg=2 conn=wye Kv=0.48 kva=75.0 EmergHKVA=112.5 %R=0.87204 bus=s_ncctt380_bt XHL=3.24

New Transformer.ctrafo(cramaee():s_ncctt1417->s_ncctt1417_bt) phases=3 windings=2 %loadloss=1.61095 %Noloadloss=0.62 normhkva=110.0 wdg=1 conn=wye Kv=12.47 kva=100.0 EmergHKVA=150.0 %R=0.805475 bus=s_ncctt1417 wdg=2 conn=wye Kv=0.48 kva=100.0 EmergHKVA=150.0 %R=0.805475 bus=s_ncctt1417_bt XHL=3.29

New Transformer.ctrafo(cramaee():s_ncctt1159->s_ncctt1159_bt) phases=3 windings=2 %loadloss=1.4645 %Noloadloss=0.266 normhkva=550.0 wdg=1 conn=wye Kv=12.47 kva=500.0 EmergHKVA=750.0 %R=0.73225 bus=s_ncctt1159 wdg=2 conn=wye Kv=0.48 kva=500.0 EmergHKVA=750.0 %R=0.73225 bus=s_ncctt1159_bt XHL=4.36

New Transformer.ctrafo(cramaee():s_ncctt1089->s_ncctt1089_bt) phases=1 windings=3 %loadloss=0.798816 %Noloadloss=0.472 normhkva=27.5 wdg=1 conn=wye bus=s_ncctt1089.1 Kv=7.19956 kva=25.0 EmergHKVA=37.5 %r=0.266272 wdg=2 conn=wye bus=s_ncctt1089_bt.1.0 Kv=0.120089 kva=25.0 EmergHKVA=37.5 %r=0.532544 wdg=3 conn=wye bus=s_ncctt1089_bt.0.2 Kv=0.120089 kva=25.0 EmergHKVA=37.5 %r=0.532544 XHL=2.4 XLT=2.4 XHT=1.6

New Transformer.ctrafo(cramaee():s_ncctt13->s_ncctt13_bt) phases=3 windings=2 %loadloss=1.74408 %Noloadloss=0.6 normhkva=82.5 wdg=1 conn=wye Kv=12.47 kva=75.0 EmergHKVA=112.5 %R=0.87204 bus=s_ncctt13 wdg=2 conn=wye Kv=0.48 kva=75.0 EmergHKVA=112.5 %R=0.87204 bus=s_ncctt13_bt XHL=3.24

New Transformer.ctrafo(cramaee():s_ncctt947->s_ncctt947_bt) phases=3 windings=2 %loadloss=1.74408 %Noloadloss=0.6 normhkva=82.5 wdg=1 conn=wye Kv=12.47 kva=75.0 EmergHKVA=112.5 %R=0.87204 bus=s_ncctt947 wdg=2 conn=wye Kv=0.48 kva=75.0 EmergHKVA=112.5 %R=0.87204 bus=s_ncctt947_bt XHL=3.24

New Transformer.ctrafo(cramaee():s_ncctt1427->s_ncctt1427_bt) phases=1 windings=3 %loadloss=0.798816 %Noloadloss=0.472 normhkva=27.5 wdg=1 conn=wye bus=s_ncctt1427.2 Kv=7.19956 kva=25.0 EmergHKVA=37.5 %r=0.266272 wdg=2 conn=wye bus=s_ncctt1427_bt.1.0 Kv=0.120089 kva=25.0 EmergHKVA=37.5 %r=0.532544 wdg=3 conn=wye bus=s_ncctt1427_bt.0.2 Kv=0.120089 kva=25.0 EmergHKVA=37.5 %r=0.532544 XHL=2.4 XLT=2.4 XHT=1.6

New Transformer.ctrafo(cramaee():s_ncctt1048->s_ncctt1048_bt) phases=3 windings=2 %loadloss=1.74408 %Noloadloss=0.6 normhkva=82.5 wdg=1 conn=wye Kv=12.47 kva=75.0 EmergHKVA=112.5 %R=0.87204 bus=s_ncctt1048 wdg=2 conn=wye Kv=0.48 kva=75.0 EmergHKVA=112.5 %R=0.87204 bus=s_ncctt1048_bt XHL=3.24

New Transformer.ctrafo(cramaee():s_ncctt713->s_ncctt713_bt) phases=3 windings=2 %loadloss=2.1568 %Noloadloss=0.516667 normhkva=165.0 wdg=1 conn=wye Kv=12.47 kva=150.0 EmergHKVA=225.0 %R=1.0784 bus=s_ncctt713 wdg=2 conn=wye Kv=0.48 kva=150.0 EmergHKVA=225.0 %R=1.0784 bus=s_ncctt713_bt XHL=3.39

New Transformer.ctrafo(cramaee():s_ncctt313->s_ncctt313_bt) phases=1 windings=3 %loadloss=0.798816 %Noloadloss=0.472 normhkva=27.5 wdg=1 conn=wye bus=s_ncctt313.1 Kv=7.19956 kva=25.0 EmergHKVA=37.5 %r=0.266272 wdg=2 conn=wye bus=s_ncctt313_bt.1.0 Kv=0.120089 kva=25.0 EmergHKVA=37.5 %r=0.532544 wdg=3 conn=wye bus=s_ncctt313_bt.0.2 Kv=0.120089 kva=25.0 EmergHKVA=37.5 %r=0.532544 XHL=2.4 XLT=2.4 XHT=1.6

New Transformer.ctrafo(cramaee():s_ncctt1181->s_ncctt1181_bt) phases=1 windings=3 %loadloss=0.798816 %Noloadloss=0.37 normhkva=55.0 wdg=1 conn=wye bus=s_ncctt1181.3 Kv=7.19956 kva=50.0 EmergHKVA=75.0 %r=0.266272 wdg=2 conn=wye bus=s_ncctt1181_bt.1.0 Kv=0.120089 kva=50.0 EmergHKVA=75.0 %r=0.532544 wdg=3 conn=wye bus=s_ncctt1181_bt.0.2 Kv=0.120089 kva=50.0 EmergHKVA=75.0 %r=0.532544 XHL=2.4 XLT=2.4 XHT=1.6

New Transformer.ctrafo(cramaee():s_ncctt228->s_ncctt228_bt) phases=3 windings=2 %loadloss=1.61095 %Noloadloss=0.62 normhkva=110.0 wdg=1 conn=wye Kv=12.47 kva=100.0 EmergHKVA=150.0 %R=0.805475 bus=s_ncctt228 wdg=2 conn=wye Kv=0.48 kva=100.0 EmergHKVA=150.0 %R=0.805475 bus=s_ncctt228_bt XHL=3.29

New Transformer.ctrafo(cramaee():s_ncctt1479->s_ncctt1479_bt) phases=3 windings=2 %loadloss=1.74408 %Noloadloss=0.6 normhkva=82.5 wdg=1 conn=wye Kv=12.47 kva=75.0 EmergHKVA=112.5 %R=0.87204 bus=s_ncctt1479 wdg=2 conn=wye Kv=0.48 kva=75.0 EmergHKVA=112.5 %R=0.87204 bus=s_ncctt1479_bt XHL=3.24

New Transformer.ctrafo(cramaee():s_ncctt496->s_ncctt496_bt) phases=3 windings=2 %loadloss=1.82396 %Noloadloss=0.325 normhkva=330.0 wdg=1 conn=wye Kv=12.47 kva=300.0 EmergHKVA=450.0 %R=0.91198 bus=s_ncctt496 wdg=2 conn=wye Kv=0.48 kva=300.0 EmergHKVA=450.0 %R=0.91198 bus=s_ncctt496_bt XHL=3.76

New Transformer.ctrafo(cramaee():s_ncctt1306->s_ncctt1306_bt) phases=1 windings=3 %loadloss=0.798816 %Noloadloss=0.37 normhkva=55.0 wdg=1 conn=wye bus=s_ncctt1306.2 Kv=7.19956 kva=50.0 EmergHKVA=75.0 %r=0.266272 wdg=2 conn=wye bus=s_ncctt1306_bt.1.0 Kv=0.120089 kva=50.0 EmergHKVA=75.0 %r=0.532544 wdg=3 conn=wye bus=s_ncctt1306_bt.0.2 Kv=0.120089 kva=50.0 EmergHKVA=75.0 %r=0.532544 XHL=2.4 XLT=2.4 XHT=1.6

New Transformer.ctrafo(cramaee():s_ncctt1082->s_ncctt1082_bt) phases=3 windings=2 %loadloss=1.74408 %Noloadloss=0.6 normhkva=82.5 wdg=1 conn=wye Kv=12.47 kva=75.0 EmergHKVA=112.5 %R=0.87204 bus=s_ncctt1082 wdg=2 conn=wye Kv=0.48 kva=75.0 EmergHKVA=112.5 %R=0.87204 bus=s_ncctt1082_bt XHL=3.24

New Transformer.ctrafo(cramaee():s_ncctt600->s_ncctt600_bt) phases=1 windings=3 %loadloss=0.798816 %Noloadloss=0.472 normhkva=27.5 wdg=1 conn=wye bus=s_ncctt600.3 Kv=7.19956 kva=25.0 EmergHKVA=37.5 %r=0.266272 wdg=2 conn=wye bus=s_ncctt600_bt.1.0 Kv=0.120089 kva=25.0 EmergHKVA=37.5 %r=0.532544 wdg=3 conn=wye bus=s_ncctt600_bt.0.2 Kv=0.120089 kva=25.0 EmergHKVA=37.5 %r=0.532544 XHL=2.4 XLT=2.4 XHT=1.6

New Transformer.ctrafo(cramaee():s_ncctt764->s_ncctt764_bt) phases=3 windings=2 %loadloss=1.74408 %Noloadloss=0.6 normhkva=82.5 wdg=1 conn=wye Kv=12.47 kva=75.0 EmergHKVA=112.5 %R=0.87204 bus=s_ncctt764 wdg=2 conn=wye Kv=0.48 kva=75.0 EmergHKVA=112.5 %R=0.87204 bus=s_ncctt764_bt XHL=3.24

New Transformer.ctrafo(cramaee():s_ncctt302->s_ncctt302_bt) phases=3 windings=2 %loadloss=1.82396 %Noloadloss=0.325 normhkva=330.0 wdg=1 conn=wye Kv=12.47 kva=300.0 EmergHKVA=450.0 %R=0.91198 bus=s_ncctt302 wdg=2 conn=wye Kv=0.48 kva=300.0 EmergHKVA=450.0 %R=0.91198 bus=s_ncctt302_bt XHL=3.76

New Transformer.ctrafo(cramaee():s_ncctt552->s_ncctt552_bt) phases=1 windings=3 %loadloss=0.798816 %Noloadloss=0.472 normhkva=27.5 wdg=1 conn=wye bus=s_ncctt552.3 Kv=7.19956 kva=25.0 EmergHKVA=37.5 %r=0.266272 wdg=2 conn=wye bus=s_ncctt552_bt.1.0 Kv=0.120089 kva=25.0 EmergHKVA=37.5 %r=0.532544 wdg=3 conn=wye bus=s_ncctt552_bt.0.2 Kv=0.120089 kva=25.0 EmergHKVA=37.5 %r=0.532544 XHL=2.4 XLT=2.4 XHT=1.6

New Transformer.ctrafo(cramaee():s_ncctt269->s_ncctt269_bt) phases=3 windings=2 %loadloss=1.74408 %Noloadloss=0.6 normhkva=82.5 wdg=1 conn=wye Kv=12.47 kva=75.0 EmergHKVA=112.5 %R=0.87204 bus=s_ncctt269 wdg=2 conn=wye Kv=0.48 kva=75.0 EmergHKVA=112.5 %R=0.87204 bus=s_ncctt269_bt XHL=3.24

New Transformer.ctrafo(cramaee():s_ncctt1138->s_ncctt1138_bt) phases=1 windings=3 %loadloss=0.798816 %Noloadloss=0.37 normhkva=55.0 wdg=1 conn=wye bus=s_ncctt1138.3 Kv=7.19956 kva=50.0 EmergHKVA=75.0 %r=0.266272 wdg=2 conn=wye bus=s_ncctt1138_bt.1.0 Kv=0.120089 kva=50.0 EmergHKVA=75.0 %r=0.532544 wdg=3 conn=wye bus=s_ncctt1138_bt.0.2 Kv=0.120089 kva=50.0 EmergHKVA=75.0 %r=0.532544 XHL=2.4 XLT=2.4 XHT=1.6

New Transformer.ctrafo(cramaee():s_ncctt1556->s_ncctt1556_bt) phases=3 windings=2 %loadloss=1.74408 %Noloadloss=0.6 normhkva=82.5 wdg=1 conn=wye Kv=12.47 kva=75.0 EmergHKVA=112.5 %R=0.87204 bus=s_ncctt1556 wdg=2 conn=wye Kv=0.48 kva=75.0 EmergHKVA=112.5 %R=0.87204 bus=s_ncctt1556_bt XHL=3.24

New Transformer.ctrafo(cramaee():s_ncctt778->s_ncctt778_bt) phases=3 windings=2 %loadloss=1.61095 %Noloadloss=0.62 normhkva=110.0 wdg=1 conn=wye Kv=12.47 kva=100.0 EmergHKVA=150.0 %R=0.805475 bus=s_ncctt778 wdg=2 conn=wye Kv=0.48 kva=100.0 EmergHKVA=150.0 %R=0.805475 bus=s_ncctt778_bt XHL=3.29

New Transformer.ctrafo(cramaee():s_ncctt574->s_ncctt574_bt) phases=1 windings=3 %loadloss=0.798816 %Noloadloss=0.472 normhkva=27.5 wdg=1 conn=wye bus=s_ncctt574.1 Kv=7.19956 kva=25.0 EmergHKVA=37.5 %r=0.266272 wdg=2 conn=wye bus=s_ncctt574_bt.1.0 Kv=0.120089 kva=25.0 EmergHKVA=37.5 %r=0.532544 wdg=3 conn=wye bus=s_ncctt574_bt.0.2 Kv=0.120089 kva=25.0 EmergHKVA=37.5 %r=0.532544 XHL=2.4 XLT=2.4 XHT=1.6

New Transformer.ctrafo(cramaee():s_ncctt96->s_ncctt96_bt) phases=3 windings=2 %loadloss=1.74408 %Noloadloss=0.6 normhkva=82.5 wdg=1 conn=wye Kv=12.47 kva=75.0 EmergHKVA=112.5 %R=0.87204 bus=s_ncctt96 wdg=2 conn=wye Kv=0.48 kva=75.0 EmergHKVA=112.5 %R=0.87204 bus=s_ncctt96_bt XHL=3.24

New Transformer.ctrafo(cramaee():s_ncctt1098->s_ncctt1098_bt) phases=1 windings=3 %loadloss=0.798816 %Noloadloss=0.472 normhkva=27.5 wdg=1 conn=wye bus=s_ncctt1098.3 Kv=7.19956 kva=25.0 EmergHKVA=37.5 %r=0.266272 wdg=2 conn=wye bus=s_ncctt1098_bt.1.0 Kv=0.120089 kva=25.0 EmergHKVA=37.5 %r=0.532544 wdg=3 conn=wye bus=s_ncctt1098_bt.0.2 Kv=0.120089 kva=25.0 EmergHKVA=37.5 %r=0.532544 XHL=2.4 XLT=2.4 XHT=1.6

New Transformer.ctrafo(cramaee():s_ncctt1351->s_ncctt1351_bt) phases=1 windings=3 %loadloss=0.798816 %Noloadloss=0.472 normhkva=27.5 wdg=1 conn=wye bus=s_ncctt1351.2 Kv=7.19956 kva=25.0 EmergHKVA=37.5 %r=0.266272 wdg=2 conn=wye bus=s_ncctt1351_bt.1.0 Kv=0.120089 kva=25.0 EmergHKVA=37.5 %r=0.532544 wdg=3 conn=wye bus=s_ncctt1351_bt.0.2 Kv=0.120089 kva=25.0 EmergHKVA=37.5 %r=0.532544 XHL=2.4 XLT=2.4 XHT=1.6

New Transformer.ctrafo(cramaee():s_ncctt1251->s_ncctt1251_bt) phases=1 windings=3 %loadloss=0.798816 %Noloadloss=0.37 normhkva=55.0 wdg=1 conn=wye bus=s_ncctt1251.2 Kv=7.19956 kva=50.0 EmergHKVA=75.0 %r=0.266272 wdg=2 conn=wye bus=s_ncctt1251_bt.1.0 Kv=0.120089 kva=50.0 EmergHKVA=75.0 %r=0.532544 wdg=3 conn=wye bus=s_ncctt1251_bt.0.2 Kv=0.120089 kva=50.0 EmergHKVA=75.0 %r=0.532544 XHL=2.4 XLT=2.4 XHT=1.6

New Transformer.ctrafo(cramaee():s_ncctt962->s_ncctt962_bt) phases=3 windings=2 %loadloss=1.74408 %Noloadloss=0.6 normhkva=82.5 wdg=1 conn=wye Kv=12.47 kva=75.0 EmergHKVA=112.5 %R=0.87204 bus=s_ncctt962 wdg=2 conn=wye Kv=0.48 kva=75.0 EmergHKVA=112.5 %R=0.87204 bus=s_ncctt962_bt XHL=3.24

New Transformer.ctrafo(cramaee():s_ncctt99->s_ncctt99_bt) phases=1 windings=3 %loadloss=0.798816 %Noloadloss=0.37 normhkva=55.0 wdg=1 conn=wye bus=s_ncctt99.1 Kv=7.19956 kva=50.0 EmergHKVA=75.0 %r=0.266272 wdg=2 conn=wye bus=s_ncctt99_bt.1.0 Kv=0.120089 kva=50.0 EmergHKVA=75.0 %r=0.532544 wdg=3 conn=wye bus=s_ncctt99_bt.0.2 Kv=0.120089 kva=50.0 EmergHKVA=75.0 %r=0.532544 XHL=2.4 XLT=2.4 XHT=1.6

New Transformer.ctrafo(cramaee():s_ncctt1183->s_ncctt1183_bt) phases=3 windings=2 %loadloss=2.1568 %Noloadloss=0.516667 normhkva=165.0 wdg=1 conn=wye Kv=12.47 kva=150.0 EmergHKVA=225.0 %R=1.0784 bus=s_ncctt1183 wdg=2 conn=wye Kv=0.48 kva=150.0 EmergHKVA=225.0 %R=1.0784 bus=s_ncctt1183_bt XHL=3.39

New Transformer.ctrafo(cramaee():s_ncctt484->s_ncctt484_bt) phases=3 windings=2 %loadloss=1.74408 %Noloadloss=0.6 normhkva=82.5 wdg=1 conn=wye Kv=12.47 kva=75.0 EmergHKVA=112.5 %R=0.87204 bus=s_ncctt484 wdg=2 conn=wye Kv=0.48 kva=75.0 EmergHKVA=112.5 %R=0.87204 bus=s_ncctt484_bt XHL=3.24

New Transformer.ctrafo(cramaee():s_ncctt513->s_ncctt513_bt) phases=1 windings=3 %loadloss=0.798816 %Noloadloss=0.37 normhkva=55.0 wdg=1 conn=wye bus=s_ncctt513.2 Kv=7.19956 kva=50.0 EmergHKVA=75.0 %r=0.266272 wdg=2 conn=wye bus=s_ncctt513_bt.1.0 Kv=0.120089 kva=50.0 EmergHKVA=75.0 %r=0.532544 wdg=3 conn=wye bus=s_ncctt513_bt.0.2 Kv=0.120089 kva=50.0 EmergHKVA=75.0 %r=0.532544 XHL=2.4 XLT=2.4 XHT=1.6

New Transformer.ctrafo(cramaee():s_ncctt670->s_ncctt670_bt) phases=1 windings=3 %loadloss=0.798816 %Noloadloss=0.37 normhkva=55.0 wdg=1 conn=wye bus=s_ncctt670.1 Kv=7.19956 kva=50.0 EmergHKVA=75.0 %r=0.266272 wdg=2 conn=wye bus=s_ncctt670_bt.1.0 Kv=0.120089 kva=50.0 EmergHKVA=75.0 %r=0.532544 wdg=3 conn=wye bus=s_ncctt670_bt.0.2 Kv=0.120089 kva=50.0 EmergHKVA=75.0 %r=0.532544 XHL=2.4 XLT=2.4 XHT=1.6

New Transformer.ctrafo(cramaee():s_ncctt98->s_ncctt98_bt) phases=3 windings=2 %loadloss=1.82396 %Noloadloss=0.325 normhkva=330.0 wdg=1 conn=wye Kv=12.47 kva=300.0 EmergHKVA=450.0 %R=0.91198 bus=s_ncctt98 wdg=2 conn=wye Kv=0.48 kva=300.0 EmergHKVA=450.0 %R=0.91198 bus=s_ncctt98_bt XHL=3.76

New Transformer.ctrafo(cramaee():s_ncctt1416->s_ncctt1416_bt) phases=3 windings=2 %loadloss=1.82396 %Noloadloss=0.325 normhkva=330.0 wdg=1 conn=wye Kv=12.47 kva=300.0 EmergHKVA=450.0 %R=0.91198 bus=s_ncctt1416 wdg=2 conn=wye Kv=0.48 kva=300.0 EmergHKVA=450.0 %R=0.91198 bus=s_ncctt1416_bt XHL=3.76

New Transformer.ctrafo(cramaee():s_ncctt1406->s_ncctt1406_bt) phases=3 windings=2 %loadloss=1.74408 %Noloadloss=0.6 normhkva=82.5 wdg=1 conn=wye Kv=12.47 kva=75.0 EmergHKVA=112.5 %R=0.87204 bus=s_ncctt1406 wdg=2 conn=wye Kv=0.48 kva=75.0 EmergHKVA=112.5 %R=0.87204 bus=s_ncctt1406_bt XHL=3.24

New Transformer.ctrafo(cramaee():s_ncctt137->s_ncctt137_bt) phases=1 windings=3 %loadloss=0.798816 %Noloadloss=0.37 normhkva=55.0 wdg=1 conn=wye bus=s_ncctt137.1 Kv=7.19956 kva=50.0 EmergHKVA=75.0 %r=0.266272 wdg=2 conn=wye bus=s_ncctt137_bt.1.0 Kv=0.120089 kva=50.0 EmergHKVA=75.0 %r=0.532544 wdg=3 conn=wye bus=s_ncctt137_bt.0.2 Kv=0.120089 kva=50.0 EmergHKVA=75.0 %r=0.532544 XHL=2.4 XLT=2.4 XHT=1.6

New Transformer.ctrafo(cramaee():s_ncctt1428->s_ncctt1428_bt) phases=3 windings=2 %loadloss=1.61095 %Noloadloss=0.62 normhkva=110.0 wdg=1 conn=wye Kv=12.47 kva=100.0 EmergHKVA=150.0 %R=0.805475 bus=s_ncctt1428 wdg=2 conn=wye Kv=0.48 kva=100.0 EmergHKVA=150.0 %R=0.805475 bus=s_ncctt1428_bt XHL=3.29

New Transformer.ctrafo(cramaee():s_ncctt150->s_ncctt150_bt) phases=3 windings=2 %loadloss=1.74408 %Noloadloss=0.6 normhkva=82.5 wdg=1 conn=wye Kv=12.47 kva=75.0 EmergHKVA=112.5 %R=0.87204 bus=s_ncctt150 wdg=2 conn=wye Kv=0.48 kva=75.0 EmergHKVA=112.5 %R=0.87204 bus=s_ncctt150_bt XHL=3.24

New Transformer.ctrafo(cramaee():s_ncctt452->s_ncctt452_bt) phases=1 windings=3 %loadloss=0.798816 %Noloadloss=0.472 normhkva=27.5 wdg=1 conn=wye bus=s_ncctt452.1 Kv=7.19956 kva=25.0 EmergHKVA=37.5 %r=0.266272 wdg=2 conn=wye bus=s_ncctt452_bt.1.0 Kv=0.120089 kva=25.0 EmergHKVA=37.5 %r=0.532544 wdg=3 conn=wye bus=s_ncctt452_bt.0.2 Kv=0.120089 kva=25.0 EmergHKVA=37.5 %r=0.532544 XHL=2.4 XLT=2.4 XHT=1.6

New Transformer.ctrafo(cramaee():s_ncctt893->s_ncctt893_bt) phases=1 windings=3 %loadloss=0.798816 %Noloadloss=0.472 normhkva=27.5 wdg=1 conn=wye bus=s_ncctt893.1 Kv=7.19956 kva=25.0 EmergHKVA=37.5 %r=0.266272 wdg=2 conn=wye bus=s_ncctt893_bt.1.0 Kv=0.120089 kva=25.0 EmergHKVA=37.5 %r=0.532544 wdg=3 conn=wye bus=s_ncctt893_bt.0.2 Kv=0.120089 kva=25.0 EmergHKVA=37.5 %r=0.532544 XHL=2.4 XLT=2.4 XHT=1.6

New Transformer.ctrafo(cramaee():s_ncctt1419->s_ncctt1419_bt) phases=1 windings=3 %loadloss=0.798816 %Noloadloss=0.37 normhkva=55.0 wdg=1 conn=wye bus=s_ncctt1419.1 Kv=7.19956 kva=50.0 EmergHKVA=75.0 %r=0.266272 wdg=2 conn=wye bus=s_ncctt1419_bt.1.0 Kv=0.120089 kva=50.0 EmergHKVA=75.0 %r=0.532544 wdg=3 conn=wye bus=s_ncctt1419_bt.0.2 Kv=0.120089 kva=50.0 EmergHKVA=75.0 %r=0.532544 XHL=2.4 XLT=2.4 XHT=1.6

New Transformer.ctrafo(cramaee():s_ncctt360->s_ncctt360_bt) phases=1 windings=3 %loadloss=0.798816 %Noloadloss=0.472 normhkva=27.5 wdg=1 conn=wye bus=s_ncctt360.1 Kv=7.19956 kva=25.0 EmergHKVA=37.5 %r=0.266272 wdg=2 conn=wye bus=s_ncctt360_bt.1.0 Kv=0.120089 kva=25.0 EmergHKVA=37.5 %r=0.532544 wdg=3 conn=wye bus=s_ncctt360_bt.0.2 Kv=0.120089 kva=25.0 EmergHKVA=37.5 %r=0.532544 XHL=2.4 XLT=2.4 XHT=1.6

New Transformer.ctrafo(cramaee():s_ncctt591->s_ncctt591_bt) phases=3 windings=2 %loadloss=1.82396 %Noloadloss=0.325 normhkva=330.0 wdg=1 conn=wye Kv=12.47 kva=300.0 EmergHKVA=450.0 %R=0.91198 bus=s_ncctt591 wdg=2 conn=wye Kv=0.48 kva=300.0 EmergHKVA=450.0 %R=0.91198 bus=s_ncctt591_bt XHL=3.76

New Transformer.ctrafo(cramaee():s_ncctt697->s_ncctt697_bt) phases=1 windings=3 %loadloss=0.798816 %Noloadloss=0.472 normhkva=27.5 wdg=1 conn=wye bus=s_ncctt697.3 Kv=7.19956 kva=25.0 EmergHKVA=37.5 %r=0.266272 wdg=2 conn=wye bus=s_ncctt697_bt.1.0 Kv=0.120089 kva=25.0 EmergHKVA=37.5 %r=0.532544 wdg=3 conn=wye bus=s_ncctt697_bt.0.2 Kv=0.120089 kva=25.0 EmergHKVA=37.5 %r=0.532544 XHL=2.4 XLT=2.4 XHT=1.6

New Transformer.ctrafo(cramaee():s_ncctt25->s_ncctt25_bt) phases=3 windings=2 %loadloss=1.74408 %Noloadloss=0.6 normhkva=82.5 wdg=1 conn=wye Kv=12.47 kva=75.0 EmergHKVA=112.5 %R=0.87204 bus=s_ncctt25 wdg=2 conn=wye Kv=0.48 kva=75.0 EmergHKVA=112.5 %R=0.87204 bus=s_ncctt25_bt XHL=3.24

New Transformer.ctrafo(cramaee():s_ncctt540->s_ncctt540_bt) phases=1 windings=3 %loadloss=0.798816 %Noloadloss=0.472 normhkva=27.5 wdg=1 conn=wye bus=s_ncctt540.1 Kv=7.19956 kva=25.0 EmergHKVA=37.5 %r=0.266272 wdg=2 conn=wye bus=s_ncctt540_bt.1.0 Kv=0.120089 kva=25.0 EmergHKVA=37.5 %r=0.532544 wdg=3 conn=wye bus=s_ncctt540_bt.0.2 Kv=0.120089 kva=25.0 EmergHKVA=37.5 %r=0.532544 XHL=2.4 XLT=2.4 XHT=1.6

New Transformer.ctrafo(cramaee():s_ncctt51->s_ncctt51_bt) phases=1 windings=3 %loadloss=0.798816 %Noloadloss=0.472 normhkva=27.5 wdg=1 conn=wye bus=s_ncctt51.1 Kv=7.19956 kva=25.0 EmergHKVA=37.5 %r=0.266272 wdg=2 conn=wye bus=s_ncctt51_bt.1.0 Kv=0.120089 kva=25.0 EmergHKVA=37.5 %r=0.532544 wdg=3 conn=wye bus=s_ncctt51_bt.0.2 Kv=0.120089 kva=25.0 EmergHKVA=37.5 %r=0.532544 XHL=2.4 XLT=2.4 XHT=1.6

New Transformer.ctrafo(cramaee():s_ncctt73->s_ncctt73_bt) phases=1 windings=3 %loadloss=0.798816 %Noloadloss=0.37 normhkva=55.0 wdg=1 conn=wye bus=s_ncctt73.2 Kv=7.19956 kva=50.0 EmergHKVA=75.0 %r=0.266272 wdg=2 conn=wye bus=s_ncctt73_bt.1.0 Kv=0.120089 kva=50.0 EmergHKVA=75.0 %r=0.532544 wdg=3 conn=wye bus=s_ncctt73_bt.0.2 Kv=0.120089 kva=50.0 EmergHKVA=75.0 %r=0.532544 XHL=2.4 XLT=2.4 XHT=1.6

New Transformer.ctrafo(cramaee():s_ncctt802->s_ncctt802_bt) phases=1 windings=3 %loadloss=0.798816 %Noloadloss=0.37 normhkva=55.0 wdg=1 conn=wye bus=s_ncctt802.2 Kv=7.19956 kva=50.0 EmergHKVA=75.0 %r=0.266272 wdg=2 conn=wye bus=s_ncctt802_bt.1.0 Kv=0.120089 kva=50.0 EmergHKVA=75.0 %r=0.532544 wdg=3 conn=wye bus=s_ncctt802_bt.0.2 Kv=0.120089 kva=50.0 EmergHKVA=75.0 %r=0.532544 XHL=2.4 XLT=2.4 XHT=1.6

New Transformer.ctrafo(cramaee():s_ncctt1228->s_ncctt1228_bt) phases=3 windings=2 %loadloss=1.74408 %Noloadloss=0.6 normhkva=82.5 wdg=1 conn=wye Kv=12.47 kva=75.0 EmergHKVA=112.5 %R=0.87204 bus=s_ncctt1228 wdg=2 conn=wye Kv=0.48 kva=75.0 EmergHKVA=112.5 %R=0.87204 bus=s_ncctt1228_bt XHL=3.24

New Transformer.ctrafo(cramaee():s_ncctt386->s_ncctt386_bt) phases=3 windings=2 %loadloss=1.61095 %Noloadloss=0.62 normhkva=110.0 wdg=1 conn=wye Kv=12.47 kva=100.0 EmergHKVA=150.0 %R=0.805475 bus=s_ncctt386 wdg=2 conn=wye Kv=0.48 kva=100.0 EmergHKVA=150.0 %R=0.805475 bus=s_ncctt386_bt XHL=3.29

New Transformer.ctrafo(cramaee():s_ncctt41->s_ncctt41_bt) phases=1 windings=3 %loadloss=0.798816 %Noloadloss=0.472 normhkva=27.5 wdg=1 conn=wye bus=s_ncctt41.1 Kv=7.19956 kva=25.0 EmergHKVA=37.5 %r=0.266272 wdg=2 conn=wye bus=s_ncctt41_bt.1.0 Kv=0.120089 kva=25.0 EmergHKVA=37.5 %r=0.532544 wdg=3 conn=wye bus=s_ncctt41_bt.0.2 Kv=0.120089 kva=25.0 EmergHKVA=37.5 %r=0.532544 XHL=2.4 XLT=2.4 XHT=1.6

New Transformer.ctrafo(cramaee():s_ncctt1229->s_ncctt1229_bt) phases=1 windings=3 %loadloss=0.798816 %Noloadloss=0.37 normhkva=55.0 wdg=1 conn=wye bus=s_ncctt1229.1 Kv=7.19956 kva=50.0 EmergHKVA=75.0 %r=0.266272 wdg=2 conn=wye bus=s_ncctt1229_bt.1.0 Kv=0.120089 kva=50.0 EmergHKVA=75.0 %r=0.532544 wdg=3 conn=wye bus=s_ncctt1229_bt.0.2 Kv=0.120089 kva=50.0 EmergHKVA=75.0 %r=0.532544 XHL=2.4 XLT=2.4 XHT=1.6

New Transformer.ctrafo(cramaee():s_ncctt219->s_ncctt219_bt) phases=3 windings=2 %loadloss=2.1568 %Noloadloss=0.516667 normhkva=165.0 wdg=1 conn=wye Kv=12.47 kva=150.0 EmergHKVA=225.0 %R=1.0784 bus=s_ncctt219 wdg=2 conn=wye Kv=0.48 kva=150.0 EmergHKVA=225.0 %R=1.0784 bus=s_ncctt219_bt XHL=3.39

New Transformer.ctrafo(cramaee():s_ncctt1369->s_ncctt1369_bt) phases=3 windings=2 %loadloss=1.4645 %Noloadloss=0.266 normhkva=550.0 wdg=1 conn=wye Kv=12.47 kva=500.0 EmergHKVA=750.0 %R=0.73225 bus=s_ncctt1369 wdg=2 conn=wye Kv=0.48 kva=500.0 EmergHKVA=750.0 %R=0.73225 bus=s_ncctt1369_bt XHL=4.36

New Transformer.ctrafo(cramaee():s_ncctt455->s_ncctt455_bt) phases=1 windings=3 %loadloss=0.798816 %Noloadloss=0.472 normhkva=27.5 wdg=1 conn=wye bus=s_ncctt455.2 Kv=7.19956 kva=25.0 EmergHKVA=37.5 %r=0.266272 wdg=2 conn=wye bus=s_ncctt455_bt.1.0 Kv=0.120089 kva=25.0 EmergHKVA=37.5 %r=0.532544 wdg=3 conn=wye bus=s_ncctt455_bt.0.2 Kv=0.120089 kva=25.0 EmergHKVA=37.5 %r=0.532544 XHL=2.4 XLT=2.4 XHT=1.6

New Transformer.ctrafo(cramaee():s_ncctt14->s_ncctt14_bt) phases=1 windings=3 %loadloss=0.798816 %Noloadloss=0.472 normhkva=27.5 wdg=1 conn=wye bus=s_ncctt14.1 Kv=7.19956 kva=25.0 EmergHKVA=37.5 %r=0.266272 wdg=2 conn=wye bus=s_ncctt14_bt.1.0 Kv=0.120089 kva=25.0 EmergHKVA=37.5 %r=0.532544 wdg=3 conn=wye bus=s_ncctt14_bt.0.2 Kv=0.120089 kva=25.0 EmergHKVA=37.5 %r=0.532544 XHL=2.4 XLT=2.4 XHT=1.6

New Transformer.ctrafo(cramaee():s_ncctt1495->s_ncctt1495_bt) phases=1 windings=3 %loadloss=0.798816 %Noloadloss=0.37 normhkva=55.0 wdg=1 conn=wye bus=s_ncctt1495.1 Kv=7.19956 kva=50.0 EmergHKVA=75.0 %r=0.266272 wdg=2 conn=wye bus=s_ncctt1495_bt.1.0 Kv=0.120089 kva=50.0 EmergHKVA=75.0 %r=0.532544 wdg=3 conn=wye bus=s_ncctt1495_bt.0.2 Kv=0.120089 kva=50.0 EmergHKVA=75.0 %r=0.532544 XHL=2.4 XLT=2.4 XHT=1.6

New Transformer.ctrafo(cramaee():s_ncctt523->s_ncctt523_bt) phases=1 windings=3 %loadloss=0.798816 %Noloadloss=0.472 normhkva=27.5 wdg=1 conn=wye bus=s_ncctt523.1 Kv=7.19956 kva=25.0 EmergHKVA=37.5 %r=0.266272 wdg=2 conn=wye bus=s_ncctt523_bt.1.0 Kv=0.120089 kva=25.0 EmergHKVA=37.5 %r=0.532544 wdg=3 conn=wye bus=s_ncctt523_bt.0.2 Kv=0.120089 kva=25.0 EmergHKVA=37.5 %r=0.532544 XHL=2.4 XLT=2.4 XHT=1.6

New Transformer.ctrafo(cramaee():s_ncctt388->s_ncctt388_bt) phases=3 windings=2 %loadloss=1.61095 %Noloadloss=0.62 normhkva=110.0 wdg=1 conn=wye Kv=12.47 kva=100.0 EmergHKVA=150.0 %R=0.805475 bus=s_ncctt388 wdg=2 conn=wye Kv=0.48 kva=100.0 EmergHKVA=150.0 %R=0.805475 bus=s_ncctt388_bt XHL=3.29

New Transformer.ctrafo(cramaee():s_ncctt1040->s_ncctt1040_bt) phases=3 windings=2 %loadloss=1.82396 %Noloadloss=0.325 normhkva=330.0 wdg=1 conn=wye Kv=12.47 kva=300.0 EmergHKVA=450.0 %R=0.91198 bus=s_ncctt1040 wdg=2 conn=wye Kv=0.48 kva=300.0 EmergHKVA=450.0 %R=0.91198 bus=s_ncctt1040_bt XHL=3.76

New Transformer.ctrafo(cramaee():s_ncctt1430->s_ncctt1430_bt) phases=3 windings=2 %loadloss=1.4645 %Noloadloss=0.266 normhkva=550.0 wdg=1 conn=wye Kv=12.47 kva=500.0 EmergHKVA=750.0 %R=0.73225 bus=s_ncctt1430 wdg=2 conn=wye Kv=0.48 kva=500.0 EmergHKVA=750.0 %R=0.73225 bus=s_ncctt1430_bt XHL=4.36

New Transformer.ctrafo(cramaee():s_ncctt773->s_ncctt773_bt) phases=1 windings=3 %loadloss=0.798816 %Noloadloss=0.472 normhkva=27.5 wdg=1 conn=wye bus=s_ncctt773.1 Kv=7.19956 kva=25.0 EmergHKVA=37.5 %r=0.266272 wdg=2 conn=wye bus=s_ncctt773_bt.1.0 Kv=0.120089 kva=25.0 EmergHKVA=37.5 %r=0.532544 wdg=3 conn=wye bus=s_ncctt773_bt.0.2 Kv=0.120089 kva=25.0 EmergHKVA=37.5 %r=0.532544 XHL=2.4 XLT=2.4 XHT=1.6

New Transformer.ctrafo(cramaee():s_ncctt617->s_ncctt617_bt) phases=3 windings=2 %loadloss=1.4645 %Noloadloss=0.266 normhkva=550.0 wdg=1 conn=wye Kv=12.47 kva=500.0 EmergHKVA=750.0 %R=0.73225 bus=s_ncctt617 wdg=2 conn=wye Kv=0.48 kva=500.0 EmergHKVA=750.0 %R=0.73225 bus=s_ncctt617_bt XHL=4.36

New Transformer.ctrafo(cramaee():s_ncctt1211->s_ncctt1211_bt) phases=3 windings=2 %loadloss=2.1568 %Noloadloss=0.516667 normhkva=165.0 wdg=1 conn=wye Kv=12.47 kva=150.0 EmergHKVA=225.0 %R=1.0784 bus=s_ncctt1211 wdg=2 conn=wye Kv=0.48 kva=150.0 EmergHKVA=225.0 %R=1.0784 bus=s_ncctt1211_bt XHL=3.39

New Transformer.ctrafo(cramaee():s_ncctt717->s_ncctt717_bt) phases=1 windings=3 %loadloss=0.798816 %Noloadloss=0.472 normhkva=27.5 wdg=1 conn=wye bus=s_ncctt717.2 Kv=7.19956 kva=25.0 EmergHKVA=37.5 %r=0.266272 wdg=2 conn=wye bus=s_ncctt717_bt.1.0 Kv=0.120089 kva=25.0 EmergHKVA=37.5 %r=0.532544 wdg=3 conn=wye bus=s_ncctt717_bt.0.2 Kv=0.120089 kva=25.0 EmergHKVA=37.5 %r=0.532544 XHL=2.4 XLT=2.4 XHT=1.6

New Transformer.ctrafo(cramaee():s_ncctt613->s_ncctt613_bt) phases=3 windings=2 %loadloss=1.74408 %Noloadloss=0.6 normhkva=82.5 wdg=1 conn=wye Kv=12.47 kva=75.0 EmergHKVA=112.5 %R=0.87204 bus=s_ncctt613 wdg=2 conn=wye Kv=0.48 kva=75.0 EmergHKVA=112.5 %R=0.87204 bus=s_ncctt613_bt XHL=3.24

New Transformer.ctrafo(cramaee():s_ncctt672->s_ncctt672_bt) phases=1 windings=3 %loadloss=0.798816 %Noloadloss=0.472 normhkva=27.5 wdg=1 conn=wye bus=s_ncctt672.2 Kv=7.19956 kva=25.0 EmergHKVA=37.5 %r=0.266272 wdg=2 conn=wye bus=s_ncctt672_bt.1.0 Kv=0.120089 kva=25.0 EmergHKVA=37.5 %r=0.532544 wdg=3 conn=wye bus=s_ncctt672_bt.0.2 Kv=0.120089 kva=25.0 EmergHKVA=37.5 %r=0.532544 XHL=2.4 XLT=2.4 XHT=1.6

New Transformer.ctrafo(cramaee():s_ncctt996->s_ncctt996_bt) phases=3 windings=2 %loadloss=1.74408 %Noloadloss=0.6 normhkva=82.5 wdg=1 conn=wye Kv=12.47 kva=75.0 EmergHKVA=112.5 %R=0.87204 bus=s_ncctt996 wdg=2 conn=wye Kv=0.48 kva=75.0 EmergHKVA=112.5 %R=0.87204 bus=s_ncctt996_bt XHL=3.24

New Transformer.ctrafo(cramaee():s_ncctt1328->s_ncctt1328_bt) phases=3 windings=2 %loadloss=1.82396 %Noloadloss=0.325 normhkva=330.0 wdg=1 conn=wye Kv=12.47 kva=300.0 EmergHKVA=450.0 %R=0.91198 bus=s_ncctt1328 wdg=2 conn=wye Kv=0.48 kva=300.0 EmergHKVA=450.0 %R=0.91198 bus=s_ncctt1328_bt XHL=3.76

New Transformer.ctrafo(cramaee():s_ncctt202->s_ncctt202_bt) phases=3 windings=2 %loadloss=1.74408 %Noloadloss=0.6 normhkva=82.5 wdg=1 conn=wye Kv=12.47 kva=75.0 EmergHKVA=112.5 %R=0.87204 bus=s_ncctt202 wdg=2 conn=wye Kv=0.48 kva=75.0 EmergHKVA=112.5 %R=0.87204 bus=s_ncctt202_bt XHL=3.24

New Transformer.ctrafo(cramaee():s_ncctt958->s_ncctt958_bt) phases=3 windings=2 %loadloss=1.74408 %Noloadloss=0.6 normhkva=82.5 wdg=1 conn=wye Kv=12.47 kva=75.0 EmergHKVA=112.5 %R=0.87204 bus=s_ncctt958 wdg=2 conn=wye Kv=0.48 kva=75.0 EmergHKVA=112.5 %R=0.87204 bus=s_ncctt958_bt XHL=3.24

New Transformer.ctrafo(cramaee():s_ncctt634->s_ncctt634_bt) phases=3 windings=2 %loadloss=1.61095 %Noloadloss=0.62 normhkva=110.0 wdg=1 conn=wye Kv=12.47 kva=100.0 EmergHKVA=150.0 %R=0.805475 bus=s_ncctt634 wdg=2 conn=wye Kv=0.48 kva=100.0 EmergHKVA=150.0 %R=0.805475 bus=s_ncctt634_bt XHL=3.29

New Transformer.ctrafo(cramaee():s_ncctt686->s_ncctt686_bt) phases=3 windings=2 %loadloss=2.1568 %Noloadloss=0.516667 normhkva=165.0 wdg=1 conn=wye Kv=12.47 kva=150.0 EmergHKVA=225.0 %R=1.0784 bus=s_ncctt686 wdg=2 conn=wye Kv=0.48 kva=150.0 EmergHKVA=225.0 %R=1.0784 bus=s_ncctt686_bt XHL=3.39

New Transformer.ctrafo(cramaee():s_ncctt1305->s_ncctt1305_bt) phases=3 windings=2 %loadloss=1.74408 %Noloadloss=0.6 normhkva=82.5 wdg=1 conn=wye Kv=12.47 kva=75.0 EmergHKVA=112.5 %R=0.87204 bus=s_ncctt1305 wdg=2 conn=wye Kv=0.48 kva=75.0 EmergHKVA=112.5 %R=0.87204 bus=s_ncctt1305_bt XHL=3.24

New Transformer.ctrafo(cramaee():s_ncctt376->s_ncctt376_bt) phases=1 windings=3 %loadloss=0.798816 %Noloadloss=0.472 normhkva=27.5 wdg=1 conn=wye bus=s_ncctt376.3 Kv=7.19956 kva=25.0 EmergHKVA=37.5 %r=0.266272 wdg=2 conn=wye bus=s_ncctt376_bt.1.0 Kv=0.120089 kva=25.0 EmergHKVA=37.5 %r=0.532544 wdg=3 conn=wye bus=s_ncctt376_bt.0.2 Kv=0.120089 kva=25.0 EmergHKVA=37.5 %r=0.532544 XHL=2.4 XLT=2.4 XHT=1.6

New Transformer.ctrafo(cramaee():s_ncctt0->s_ncctt0_bt) phases=3 windings=2 %loadloss=1.59763 %Noloadloss=0.2 normhkva=1100.0 wdg=1 conn=wye Kv=12.47 kva=1000.0 EmergHKVA=1500.0 %R=0.798815 bus=s_ncctt0 wdg=2 conn=wye Kv=0.48 kva=1000.0 EmergHKVA=1500.0 %R=0.798815 bus=s_ncctt0_bt XHL=5.62

New Transformer.ctrafo(cramaee():s_ncctt1393->s_ncctt1393_bt) phases=3 windings=2 %loadloss=1.4645 %Noloadloss=0.266 normhkva=550.0 wdg=1 conn=wye Kv=12.47 kva=500.0 EmergHKVA=750.0 %R=0.73225 bus=s_ncctt1393 wdg=2 conn=wye Kv=0.48 kva=500.0 EmergHKVA=750.0 %R=0.73225 bus=s_ncctt1393_bt XHL=4.36

New Transformer.ctrafo(cramaee():s_ncctt724->s_ncctt724_bt) phases=3 windings=2 %loadloss=1.4645 %Noloadloss=0.266 normhkva=550.0 wdg=1 conn=wye Kv=12.47 kva=500.0 EmergHKVA=750.0 %R=0.73225 bus=s_ncctt724 wdg=2 conn=wye Kv=0.48 kva=500.0 EmergHKVA=750.0 %R=0.73225 bus=s_ncctt724_bt XHL=4.36

New Transformer.ctrafo(cramaee():s_ncctt1237->s_ncctt1237_bt) phases=1 windings=3 %loadloss=0.798816 %Noloadloss=0.472 normhkva=27.5 wdg=1 conn=wye bus=s_ncctt1237.1 Kv=7.19956 kva=25.0 EmergHKVA=37.5 %r=0.266272 wdg=2 conn=wye bus=s_ncctt1237_bt.1.0 Kv=0.120089 kva=25.0 EmergHKVA=37.5 %r=0.532544 wdg=3 conn=wye bus=s_ncctt1237_bt.0.2 Kv=0.120089 kva=25.0 EmergHKVA=37.5 %r=0.532544 XHL=2.4 XLT=2.4 XHT=1.6

New Transformer.ctrafo(cramaee():s_ncctt338->s_ncctt338_bt) phases=3 windings=2 %loadloss=2.1568 %Noloadloss=0.516667 normhkva=165.0 wdg=1 conn=wye Kv=12.47 kva=150.0 EmergHKVA=225.0 %R=1.0784 bus=s_ncctt338 wdg=2 conn=wye Kv=0.48 kva=150.0 EmergHKVA=225.0 %R=1.0784 bus=s_ncctt338_bt XHL=3.39

New Transformer.ctrafo(cramaee():s_ncctt104->s_ncctt104_bt) phases=1 windings=3 %loadloss=0.798816 %Noloadloss=0.37 normhkva=55.0 wdg=1 conn=wye bus=s_ncctt104.2 Kv=7.19956 kva=50.0 EmergHKVA=75.0 %r=0.266272 wdg=2 conn=wye bus=s_ncctt104_bt.1.0 Kv=0.120089 kva=50.0 EmergHKVA=75.0 %r=0.532544 wdg=3 conn=wye bus=s_ncctt104_bt.0.2 Kv=0.120089 kva=50.0 EmergHKVA=75.0 %r=0.532544 XHL=2.4 XLT=2.4 XHT=1.6

New Transformer.ctrafo(cramaee():s_ncctt777->s_ncctt777_bt) phases=1 windings=3 %loadloss=0.798816 %Noloadloss=0.472 normhkva=27.5 wdg=1 conn=wye bus=s_ncctt777.3 Kv=7.19956 kva=25.0 EmergHKVA=37.5 %r=0.266272 wdg=2 conn=wye bus=s_ncctt777_bt.1.0 Kv=0.120089 kva=25.0 EmergHKVA=37.5 %r=0.532544 wdg=3 conn=wye bus=s_ncctt777_bt.0.2 Kv=0.120089 kva=25.0 EmergHKVA=37.5 %r=0.532544 XHL=2.4 XLT=2.4 XHT=1.6

New Transformer.ctrafo(cramaee():s_ncctt1318->s_ncctt1318_bt) phases=3 windings=2 %loadloss=1.59763 %Noloadloss=0.2 normhkva=1100.0 wdg=1 conn=wye Kv=12.47 kva=1000.0 EmergHKVA=1500.0 %R=0.798815 bus=s_ncctt1318 wdg=2 conn=wye Kv=0.48 kva=1000.0 EmergHKVA=1500.0 %R=0.798815 bus=s_ncctt1318_bt XHL=5.62

New Transformer.ctrafo(cramaee():s_ncctt191->s_ncctt191_bt) phases=1 windings=3 %loadloss=0.798816 %Noloadloss=0.37 normhkva=55.0 wdg=1 conn=wye bus=s_ncctt191.1 Kv=7.19956 kva=50.0 EmergHKVA=75.0 %r=0.266272 wdg=2 conn=wye bus=s_ncctt191_bt.1.0 Kv=0.120089 kva=50.0 EmergHKVA=75.0 %r=0.532544 wdg=3 conn=wye bus=s_ncctt191_bt.0.2 Kv=0.120089 kva=50.0 EmergHKVA=75.0 %r=0.532544 XHL=2.4 XLT=2.4 XHT=1.6

New Transformer.ctrafo(cramaee():s_ncctt206->s_ncctt206_bt) phases=3 windings=2 %loadloss=1.74408 %Noloadloss=0.6 normhkva=82.5 wdg=1 conn=wye Kv=12.47 kva=75.0 EmergHKVA=112.5 %R=0.87204 bus=s_ncctt206 wdg=2 conn=wye Kv=0.48 kva=75.0 EmergHKVA=112.5 %R=0.87204 bus=s_ncctt206_bt XHL=3.24

New Transformer.ctrafo(cramaee():s_ncctt1370->s_ncctt1370_bt) phases=3 windings=2 %loadloss=1.74408 %Noloadloss=0.6 normhkva=82.5 wdg=1 conn=wye Kv=12.47 kva=75.0 EmergHKVA=112.5 %R=0.87204 bus=s_ncctt1370 wdg=2 conn=wye Kv=0.48 kva=75.0 EmergHKVA=112.5 %R=0.87204 bus=s_ncctt1370_bt XHL=3.24

New Transformer.ctrafo(cramaee():s_ncctt173->s_ncctt173_bt) phases=3 windings=2 %loadloss=1.82396 %Noloadloss=0.325 normhkva=330.0 wdg=1 conn=wye Kv=12.47 kva=300.0 EmergHKVA=450.0 %R=0.91198 bus=s_ncctt173 wdg=2 conn=wye Kv=0.48 kva=300.0 EmergHKVA=450.0 %R=0.91198 bus=s_ncctt173_bt XHL=3.76

New Transformer.ctrafo(cramaee():s_ncctt305->s_ncctt305_bt) phases=1 windings=3 %loadloss=0.798816 %Noloadloss=0.472 normhkva=27.5 wdg=1 conn=wye bus=s_ncctt305.1 Kv=7.19956 kva=25.0 EmergHKVA=37.5 %r=0.266272 wdg=2 conn=wye bus=s_ncctt305_bt.1.0 Kv=0.120089 kva=25.0 EmergHKVA=37.5 %r=0.532544 wdg=3 conn=wye bus=s_ncctt305_bt.0.2 Kv=0.120089 kva=25.0 EmergHKVA=37.5 %r=0.532544 XHL=2.4 XLT=2.4 XHT=1.6

New Transformer.ctrafo(cramaee():s_ncctt514->s_ncctt514_bt) phases=3 windings=2 %loadloss=2.1568 %Noloadloss=0.516667 normhkva=165.0 wdg=1 conn=wye Kv=12.47 kva=150.0 EmergHKVA=225.0 %R=1.0784 bus=s_ncctt514 wdg=2 conn=wye Kv=0.48 kva=150.0 EmergHKVA=225.0 %R=1.0784 bus=s_ncctt514_bt XHL=3.39

New Transformer.ctrafo(cramaee():s_ncctt989->s_ncctt989_bt) phases=3 windings=2 %loadloss=1.74408 %Noloadloss=0.6 normhkva=82.5 wdg=1 conn=wye Kv=12.47 kva=75.0 EmergHKVA=112.5 %R=0.87204 bus=s_ncctt989 wdg=2 conn=wye Kv=0.48 kva=75.0 EmergHKVA=112.5 %R=0.87204 bus=s_ncctt989_bt XHL=3.24

New Transformer.ctrafo(cramaee():s_ncctt368->s_ncctt368_bt) phases=3 windings=2 %loadloss=1.74408 %Noloadloss=0.6 normhkva=82.5 wdg=1 conn=wye Kv=12.47 kva=75.0 EmergHKVA=112.5 %R=0.87204 bus=s_ncctt368 wdg=2 conn=wye Kv=0.48 kva=75.0 EmergHKVA=112.5 %R=0.87204 bus=s_ncctt368_bt XHL=3.24

New Transformer.ctrafo(cramaee():s_ncctt43->s_ncctt43_bt) phases=1 windings=3 %loadloss=0.798816 %Noloadloss=0.472 normhkva=27.5 wdg=1 conn=wye bus=s_ncctt43.2 Kv=7.19956 kva=25.0 EmergHKVA=37.5 %r=0.266272 wdg=2 conn=wye bus=s_ncctt43_bt.1.0 Kv=0.120089 kva=25.0 EmergHKVA=37.5 %r=0.532544 wdg=3 conn=wye bus=s_ncctt43_bt.0.2 Kv=0.120089 kva=25.0 EmergHKVA=37.5 %r=0.532544 XHL=2.4 XLT=2.4 XHT=1.6

New Transformer.ctrafo(cramaee():s_ncctt1050->s_ncctt1050_bt) phases=3 windings=2 %loadloss=1.74408 %Noloadloss=0.6 normhkva=82.5 wdg=1 conn=wye Kv=12.47 kva=75.0 EmergHKVA=112.5 %R=0.87204 bus=s_ncctt1050 wdg=2 conn=wye Kv=0.48 kva=75.0 EmergHKVA=112.5 %R=0.87204 bus=s_ncctt1050_bt XHL=3.24

New Transformer.ctrafo(cramaee():s_ncctt312->s_ncctt312_bt) phases=3 windings=2 %loadloss=1.74408 %Noloadloss=0.6 normhkva=82.5 wdg=1 conn=wye Kv=12.47 kva=75.0 EmergHKVA=112.5 %R=0.87204 bus=s_ncctt312 wdg=2 conn=wye Kv=0.48 kva=75.0 EmergHKVA=112.5 %R=0.87204 bus=s_ncctt312_bt XHL=3.24

New Transformer.ctrafo(cramaee():s_ncctt944->s_ncctt944_bt) phases=3 windings=2 %loadloss=1.61095 %Noloadloss=0.62 normhkva=110.0 wdg=1 conn=wye Kv=12.47 kva=100.0 EmergHKVA=150.0 %R=0.805475 bus=s_ncctt944 wdg=2 conn=wye Kv=0.48 kva=100.0 EmergHKVA=150.0 %R=0.805475 bus=s_ncctt944_bt XHL=3.29

New Transformer.ctrafo(cramaee():s_ncctt1595->s_ncctt1595_bt) phases=1 windings=3 %loadloss=0.798816 %Noloadloss=0.472 normhkva=27.5 wdg=1 conn=wye bus=s_ncctt1595.2 Kv=7.19956 kva=25.0 EmergHKVA=37.5 %r=0.266272 wdg=2 conn=wye bus=s_ncctt1595_bt.1.0 Kv=0.120089 kva=25.0 EmergHKVA=37.5 %r=0.532544 wdg=3 conn=wye bus=s_ncctt1595_bt.0.2 Kv=0.120089 kva=25.0 EmergHKVA=37.5 %r=0.532544 XHL=2.4 XLT=2.4 XHT=1.6

New Transformer.ctrafo(cramaee():s_ncctt310->s_ncctt310_bt) phases=1 windings=3 %loadloss=0.798816 %Noloadloss=0.37 normhkva=55.0 wdg=1 conn=wye bus=s_ncctt310.3 Kv=7.19956 kva=50.0 EmergHKVA=75.0 %r=0.266272 wdg=2 conn=wye bus=s_ncctt310_bt.1.0 Kv=0.120089 kva=50.0 EmergHKVA=75.0 %r=0.532544 wdg=3 conn=wye bus=s_ncctt310_bt.0.2 Kv=0.120089 kva=50.0 EmergHKVA=75.0 %r=0.532544 XHL=2.4 XLT=2.4 XHT=1.6

New Transformer.ctrafo(cramaee():s_ncctt1075->s_ncctt1075_bt) phases=1 windings=3 %loadloss=0.798816 %Noloadloss=0.472 normhkva=27.5 wdg=1 conn=wye bus=s_ncctt1075.1 Kv=7.19956 kva=25.0 EmergHKVA=37.5 %r=0.266272 wdg=2 conn=wye bus=s_ncctt1075_bt.1.0 Kv=0.120089 kva=25.0 EmergHKVA=37.5 %r=0.532544 wdg=3 conn=wye bus=s_ncctt1075_bt.0.2 Kv=0.120089 kva=25.0 EmergHKVA=37.5 %r=0.532544 XHL=2.4 XLT=2.4 XHT=1.6

New Transformer.ctrafo(cramaee():s_ncctt926->s_ncctt926_bt) phases=1 windings=3 %loadloss=0.798816 %Noloadloss=0.37 normhkva=55.0 wdg=1 conn=wye bus=s_ncctt926.3 Kv=7.19956 kva=50.0 EmergHKVA=75.0 %r=0.266272 wdg=2 conn=wye bus=s_ncctt926_bt.1.0 Kv=0.120089 kva=50.0 EmergHKVA=75.0 %r=0.532544 wdg=3 conn=wye bus=s_ncctt926_bt.0.2 Kv=0.120089 kva=50.0 EmergHKVA=75.0 %r=0.532544 XHL=2.4 XLT=2.4 XHT=1.6

New Transformer.ctrafo(cramaee():s_ncctt1503->s_ncctt1503_bt) phases=3 windings=2 %loadloss=1.74408 %Noloadloss=0.6 normhkva=82.5 wdg=1 conn=wye Kv=12.47 kva=75.0 EmergHKVA=112.5 %R=0.87204 bus=s_ncctt1503 wdg=2 conn=wye Kv=0.48 kva=75.0 EmergHKVA=112.5 %R=0.87204 bus=s_ncctt1503_bt XHL=3.24

New Transformer.ctrafo(cramaee():s_ncctt830->s_ncctt830_bt) phases=3 windings=2 %loadloss=1.61095 %Noloadloss=0.62 normhkva=110.0 wdg=1 conn=wye Kv=12.47 kva=100.0 EmergHKVA=150.0 %R=0.805475 bus=s_ncctt830 wdg=2 conn=wye Kv=0.48 kva=100.0 EmergHKVA=150.0 %R=0.805475 bus=s_ncctt830_bt XHL=3.29

New Transformer.ctrafo(cramaee():s_ncctt180->s_ncctt180_bt) phases=1 windings=3 %loadloss=0.798816 %Noloadloss=0.472 normhkva=27.5 wdg=1 conn=wye bus=s_ncctt180.2 Kv=7.19956 kva=25.0 EmergHKVA=37.5 %r=0.266272 wdg=2 conn=wye bus=s_ncctt180_bt.1.0 Kv=0.120089 kva=25.0 EmergHKVA=37.5 %r=0.532544 wdg=3 conn=wye bus=s_ncctt180_bt.0.2 Kv=0.120089 kva=25.0 EmergHKVA=37.5 %r=0.532544 XHL=2.4 XLT=2.4 XHT=1.6

New Transformer.ctrafo(cramaee():s_ncctt911->s_ncctt911_bt) phases=1 windings=3 %loadloss=0.798816 %Noloadloss=0.472 normhkva=27.5 wdg=1 conn=wye bus=s_ncctt911.1 Kv=7.19956 kva=25.0 EmergHKVA=37.5 %r=0.266272 wdg=2 conn=wye bus=s_ncctt911_bt.1.0 Kv=0.120089 kva=25.0 EmergHKVA=37.5 %r=0.532544 wdg=3 conn=wye bus=s_ncctt911_bt.0.2 Kv=0.120089 kva=25.0 EmergHKVA=37.5 %r=0.532544 XHL=2.4 XLT=2.4 XHT=1.6

New Transformer.ctrafo(cramaee():s_ncctt1320->s_ncctt1320_bt) phases=1 windings=3 %loadloss=0.798816 %Noloadloss=0.472 normhkva=27.5 wdg=1 conn=wye bus=s_ncctt1320.1 Kv=7.19956 kva=25.0 EmergHKVA=37.5 %r=0.266272 wdg=2 conn=wye bus=s_ncctt1320_bt.1.0 Kv=0.120089 kva=25.0 EmergHKVA=37.5 %r=0.532544 wdg=3 conn=wye bus=s_ncctt1320_bt.0.2 Kv=0.120089 kva=25.0 EmergHKVA=37.5 %r=0.532544 XHL=2.4 XLT=2.4 XHT=1.6

New Transformer.ctrafo(cramaee():s_ncctt1431->s_ncctt1431_bt) phases=1 windings=3 %loadloss=0.798816 %Noloadloss=0.472 normhkva=27.5 wdg=1 conn=wye bus=s_ncctt1431.1 Kv=7.19956 kva=25.0 EmergHKVA=37.5 %r=0.266272 wdg=2 conn=wye bus=s_ncctt1431_bt.1.0 Kv=0.120089 kva=25.0 EmergHKVA=37.5 %r=0.532544 wdg=3 conn=wye bus=s_ncctt1431_bt.0.2 Kv=0.120089 kva=25.0 EmergHKVA=37.5 %r=0.532544 XHL=2.4 XLT=2.4 XHT=1.6

New Transformer.ctrafo(cramaee():s_ncctt71->s_ncctt71_bt) phases=1 windings=3 %loadloss=0.798816 %Noloadloss=0.37 normhkva=55.0 wdg=1 conn=wye bus=s_ncctt71.3 Kv=7.19956 kva=50.0 EmergHKVA=75.0 %r=0.266272 wdg=2 conn=wye bus=s_ncctt71_bt.1.0 Kv=0.120089 kva=50.0 EmergHKVA=75.0 %r=0.532544 wdg=3 conn=wye bus=s_ncctt71_bt.0.2 Kv=0.120089 kva=50.0 EmergHKVA=75.0 %r=0.532544 XHL=2.4 XLT=2.4 XHT=1.6

New Transformer.ctrafo(cramaee():s_ncctt266->s_ncctt266_bt) phases=1 windings=3 %loadloss=0.798816 %Noloadloss=0.472 normhkva=27.5 wdg=1 conn=wye bus=s_ncctt266.1 Kv=7.19956 kva=25.0 EmergHKVA=37.5 %r=0.266272 wdg=2 conn=wye bus=s_ncctt266_bt.1.0 Kv=0.120089 kva=25.0 EmergHKVA=37.5 %r=0.532544 wdg=3 conn=wye bus=s_ncctt266_bt.0.2 Kv=0.120089 kva=25.0 EmergHKVA=37.5 %r=0.532544 XHL=2.4 XLT=2.4 XHT=1.6

New Transformer.ctrafo(cramaee():s_ncctt379->s_ncctt379_bt) phases=3 windings=2 %loadloss=1.82396 %Noloadloss=0.325 normhkva=330.0 wdg=1 conn=wye Kv=12.47 kva=300.0 EmergHKVA=450.0 %R=0.91198 bus=s_ncctt379 wdg=2 conn=wye Kv=0.48 kva=300.0 EmergHKVA=450.0 %R=0.91198 bus=s_ncctt379_bt XHL=3.76

New Transformer.ctrafo(cramaee():s_ncctt1315->s_ncctt1315_bt) phases=3 windings=2 %loadloss=1.61095 %Noloadloss=0.62 normhkva=110.0 wdg=1 conn=wye Kv=12.47 kva=100.0 EmergHKVA=150.0 %R=0.805475 bus=s_ncctt1315 wdg=2 conn=wye Kv=0.48 kva=100.0 EmergHKVA=150.0 %R=0.805475 bus=s_ncctt1315_bt XHL=3.29

New Transformer.ctrafo(cramaee():s_ncctt1507->s_ncctt1507_bt) phases=3 windings=2 %loadloss=1.74408 %Noloadloss=0.6 normhkva=82.5 wdg=1 conn=wye Kv=12.47 kva=75.0 EmergHKVA=112.5 %R=0.87204 bus=s_ncctt1507 wdg=2 conn=wye Kv=0.48 kva=75.0 EmergHKVA=112.5 %R=0.87204 bus=s_ncctt1507_bt XHL=3.24

New Transformer.ctrafo(cramaee():s_ncctt999->s_ncctt999_bt) phases=3 windings=2 %loadloss=1.74408 %Noloadloss=0.6 normhkva=82.5 wdg=1 conn=wye Kv=12.47 kva=75.0 EmergHKVA=112.5 %R=0.87204 bus=s_ncctt999 wdg=2 conn=wye Kv=0.48 kva=75.0 EmergHKVA=112.5 %R=0.87204 bus=s_ncctt999_bt XHL=3.24

New Transformer.ctrafo(cramaee():s_ncctt1349->s_ncctt1349_bt) phases=3 windings=2 %loadloss=1.61095 %Noloadloss=0.62 normhkva=110.0 wdg=1 conn=wye Kv=12.47 kva=100.0 EmergHKVA=150.0 %R=0.805475 bus=s_ncctt1349 wdg=2 conn=wye Kv=0.48 kva=100.0 EmergHKVA=150.0 %R=0.805475 bus=s_ncctt1349_bt XHL=3.29

New Transformer.ctrafo(cramaee():s_ncctt866->s_ncctt866_bt) phases=1 windings=3 %loadloss=0.798816 %Noloadloss=0.472 normhkva=27.5 wdg=1 conn=wye bus=s_ncctt866.2 Kv=7.19956 kva=25.0 EmergHKVA=37.5 %r=0.266272 wdg=2 conn=wye bus=s_ncctt866_bt.1.0 Kv=0.120089 kva=25.0 EmergHKVA=37.5 %r=0.532544 wdg=3 conn=wye bus=s_ncctt866_bt.0.2 Kv=0.120089 kva=25.0 EmergHKVA=37.5 %r=0.532544 XHL=2.4 XLT=2.4 XHT=1.6

New Transformer.ctrafo(cramaee():s_ncctt1404->s_ncctt1404_bt) phases=3 windings=2 %loadloss=1.61095 %Noloadloss=0.62 normhkva=110.0 wdg=1 conn=wye Kv=12.47 kva=100.0 EmergHKVA=150.0 %R=0.805475 bus=s_ncctt1404 wdg=2 conn=wye Kv=0.48 kva=100.0 EmergHKVA=150.0 %R=0.805475 bus=s_ncctt1404_bt XHL=3.29

New Transformer.ctrafo(cramaee():s_ncctt915->s_ncctt915_bt) phases=3 windings=2 %loadloss=1.4645 %Noloadloss=0.266 normhkva=550.0 wdg=1 conn=wye Kv=12.47 kva=500.0 EmergHKVA=750.0 %R=0.73225 bus=s_ncctt915 wdg=2 conn=wye Kv=0.48 kva=500.0 EmergHKVA=750.0 %R=0.73225 bus=s_ncctt915_bt XHL=4.36

New Transformer.ctrafo(cramaee():s_ncctt160->s_ncctt160_bt) phases=1 windings=3 %loadloss=0.798816 %Noloadloss=0.37 normhkva=55.0 wdg=1 conn=wye bus=s_ncctt160.3 Kv=7.19956 kva=50.0 EmergHKVA=75.0 %r=0.266272 wdg=2 conn=wye bus=s_ncctt160_bt.1.0 Kv=0.120089 kva=50.0 EmergHKVA=75.0 %r=0.532544 wdg=3 conn=wye bus=s_ncctt160_bt.0.2 Kv=0.120089 kva=50.0 EmergHKVA=75.0 %r=0.532544 XHL=2.4 XLT=2.4 XHT=1.6

New Transformer.ctrafo(cramaee():s_ncctt1435->s_ncctt1435_bt) phases=3 windings=2 %loadloss=1.74408 %Noloadloss=0.6 normhkva=82.5 wdg=1 conn=wye Kv=12.47 kva=75.0 EmergHKVA=112.5 %R=0.87204 bus=s_ncctt1435 wdg=2 conn=wye Kv=0.48 kva=75.0 EmergHKVA=112.5 %R=0.87204 bus=s_ncctt1435_bt XHL=3.24

New Transformer.ctrafo(cramaee():s_ncctt1252->s_ncctt1252_bt) phases=3 windings=2 %loadloss=1.82396 %Noloadloss=0.325 normhkva=330.0 wdg=1 conn=wye Kv=12.47 kva=300.0 EmergHKVA=450.0 %R=0.91198 bus=s_ncctt1252 wdg=2 conn=wye Kv=0.48 kva=300.0 EmergHKVA=450.0 %R=0.91198 bus=s_ncctt1252_bt XHL=3.76

New Transformer.ctrafo(cramaee():s_ncctt1301->s_ncctt1301_bt) phases=3 windings=2 %loadloss=1.61095 %Noloadloss=0.62 normhkva=110.0 wdg=1 conn=wye Kv=12.47 kva=100.0 EmergHKVA=150.0 %R=0.805475 bus=s_ncctt1301 wdg=2 conn=wye Kv=0.48 kva=100.0 EmergHKVA=150.0 %R=0.805475 bus=s_ncctt1301_bt XHL=3.29

New Transformer.ctrafo(cramaee():s_ncctt432->s_ncctt432_bt) phases=1 windings=3 %loadloss=0.798816 %Noloadloss=0.472 normhkva=27.5 wdg=1 conn=wye bus=s_ncctt432.3 Kv=7.19956 kva=25.0 EmergHKVA=37.5 %r=0.266272 wdg=2 conn=wye bus=s_ncctt432_bt.1.0 Kv=0.120089 kva=25.0 EmergHKVA=37.5 %r=0.532544 wdg=3 conn=wye bus=s_ncctt432_bt.0.2 Kv=0.120089 kva=25.0 EmergHKVA=37.5 %r=0.532544 XHL=2.4 XLT=2.4 XHT=1.6

New Transformer.ctrafo(cramaee():s_ncctt853->s_ncctt853_bt) phases=1 windings=3 %loadloss=0.798816 %Noloadloss=0.472 normhkva=27.5 wdg=1 conn=wye bus=s_ncctt853.1 Kv=7.19956 kva=25.0 EmergHKVA=37.5 %r=0.266272 wdg=2 conn=wye bus=s_ncctt853_bt.1.0 Kv=0.120089 kva=25.0 EmergHKVA=37.5 %r=0.532544 wdg=3 conn=wye bus=s_ncctt853_bt.0.2 Kv=0.120089 kva=25.0 EmergHKVA=37.5 %r=0.532544 XHL=2.4 XLT=2.4 XHT=1.6

New Transformer.ctrafo(cramaee():s_ncctt1443->s_ncctt1443_bt) phases=3 windings=2 %loadloss=1.82396 %Noloadloss=0.325 normhkva=330.0 wdg=1 conn=wye Kv=12.47 kva=300.0 EmergHKVA=450.0 %R=0.91198 bus=s_ncctt1443 wdg=2 conn=wye Kv=0.48 kva=300.0 EmergHKVA=450.0 %R=0.91198 bus=s_ncctt1443_bt XHL=3.76

New Transformer.ctrafo(cramaee():s_ncctt279->s_ncctt279_bt) phases=3 windings=2 %loadloss=1.4645 %Noloadloss=0.266 normhkva=550.0 wdg=1 conn=wye Kv=12.47 kva=500.0 EmergHKVA=750.0 %R=0.73225 bus=s_ncctt279 wdg=2 conn=wye Kv=0.48 kva=500.0 EmergHKVA=750.0 %R=0.73225 bus=s_ncctt279_bt XHL=4.36

New Transformer.ctrafo(cramaee():s_ncctt274->s_ncctt274_bt) phases=3 windings=2 %loadloss=1.74408 %Noloadloss=0.6 normhkva=82.5 wdg=1 conn=wye Kv=12.47 kva=75.0 EmergHKVA=112.5 %R=0.87204 bus=s_ncctt274 wdg=2 conn=wye Kv=0.48 kva=75.0 EmergHKVA=112.5 %R=0.87204 bus=s_ncctt274_bt XHL=3.24

New Transformer.ctrafo(cramaee():s_ncctt1321->s_ncctt1321_bt) phases=1 windings=3 %loadloss=0.798816 %Noloadloss=0.472 normhkva=27.5 wdg=1 conn=wye bus=s_ncctt1321.2 Kv=7.19956 kva=25.0 EmergHKVA=37.5 %r=0.266272 wdg=2 conn=wye bus=s_ncctt1321_bt.1.0 Kv=0.120089 kva=25.0 EmergHKVA=37.5 %r=0.532544 wdg=3 conn=wye bus=s_ncctt1321_bt.0.2 Kv=0.120089 kva=25.0 EmergHKVA=37.5 %r=0.532544 XHL=2.4 XLT=2.4 XHT=1.6

New Transformer.ctrafo(cramaee():s_ncctt195->s_ncctt195_bt) phases=3 windings=2 %loadloss=1.4645 %Noloadloss=0.266 normhkva=550.0 wdg=1 conn=wye Kv=12.47 kva=500.0 EmergHKVA=750.0 %R=0.73225 bus=s_ncctt195 wdg=2 conn=wye Kv=0.48 kva=500.0 EmergHKVA=750.0 %R=0.73225 bus=s_ncctt195_bt XHL=4.36

New Transformer.ctrafo(cramaee():s_ncctt543->s_ncctt543_bt) phases=3 windings=2 %loadloss=1.82396 %Noloadloss=0.325 normhkva=330.0 wdg=1 conn=wye Kv=12.47 kva=300.0 EmergHKVA=450.0 %R=0.91198 bus=s_ncctt543 wdg=2 conn=wye Kv=0.48 kva=300.0 EmergHKVA=450.0 %R=0.91198 bus=s_ncctt543_bt XHL=3.76

New Transformer.ctrafo(cramaee():s_ncctt524->s_ncctt524_bt) phases=3 windings=2 %loadloss=1.61095 %Noloadloss=0.62 normhkva=110.0 wdg=1 conn=wye Kv=12.47 kva=100.0 EmergHKVA=150.0 %R=0.805475 bus=s_ncctt524 wdg=2 conn=wye Kv=0.48 kva=100.0 EmergHKVA=150.0 %R=0.805475 bus=s_ncctt524_bt XHL=3.29

New Transformer.ctrafo(cramaee():s_ncctt252->s_ncctt252_bt) phases=1 windings=3 %loadloss=0.798816 %Noloadloss=0.37 normhkva=55.0 wdg=1 conn=wye bus=s_ncctt252.2 Kv=7.19956 kva=50.0 EmergHKVA=75.0 %r=0.266272 wdg=2 conn=wye bus=s_ncctt252_bt.1.0 Kv=0.120089 kva=50.0 EmergHKVA=75.0 %r=0.532544 wdg=3 conn=wye bus=s_ncctt252_bt.0.2 Kv=0.120089 kva=50.0 EmergHKVA=75.0 %r=0.532544 XHL=2.4 XLT=2.4 XHT=1.6

New Transformer.ctrafo(cramaee():s_ncctt1025->s_ncctt1025_bt) phases=1 windings=3 %loadloss=0.798816 %Noloadloss=0.472 normhkva=27.5 wdg=1 conn=wye bus=s_ncctt1025.3 Kv=7.19956 kva=25.0 EmergHKVA=37.5 %r=0.266272 wdg=2 conn=wye bus=s_ncctt1025_bt.1.0 Kv=0.120089 kva=25.0 EmergHKVA=37.5 %r=0.532544 wdg=3 conn=wye bus=s_ncctt1025_bt.0.2 Kv=0.120089 kva=25.0 EmergHKVA=37.5 %r=0.532544 XHL=2.4 XLT=2.4 XHT=1.6

New Transformer.ctrafo(cramaee():s_ncctt995->s_ncctt995_bt) phases=1 windings=3 %loadloss=0.798816 %Noloadloss=0.472 normhkva=27.5 wdg=1 conn=wye bus=s_ncctt995.3 Kv=7.19956 kva=25.0 EmergHKVA=37.5 %r=0.266272 wdg=2 conn=wye bus=s_ncctt995_bt.1.0 Kv=0.120089 kva=25.0 EmergHKVA=37.5 %r=0.532544 wdg=3 conn=wye bus=s_ncctt995_bt.0.2 Kv=0.120089 kva=25.0 EmergHKVA=37.5 %r=0.532544 XHL=2.4 XLT=2.4 XHT=1.6

New Transformer.ctrafo(cramaee():s_ncctt973->s_ncctt973_bt) phases=3 windings=2 %loadloss=1.74408 %Noloadloss=0.6 normhkva=82.5 wdg=1 conn=wye Kv=12.47 kva=75.0 EmergHKVA=112.5 %R=0.87204 bus=s_ncctt973 wdg=2 conn=wye Kv=0.48 kva=75.0 EmergHKVA=112.5 %R=0.87204 bus=s_ncctt973_bt XHL=3.24

New Transformer.ctrafo(cramaee():s_ncctt1452->s_ncctt1452_bt) phases=3 windings=2 %loadloss=2.1568 %Noloadloss=0.516667 normhkva=165.0 wdg=1 conn=wye Kv=12.47 kva=150.0 EmergHKVA=225.0 %R=1.0784 bus=s_ncctt1452 wdg=2 conn=wye Kv=0.48 kva=150.0 EmergHKVA=225.0 %R=1.0784 bus=s_ncctt1452_bt XHL=3.39

New Transformer.ctrafo(cramaee():s_ncctt1263->s_ncctt1263_bt) phases=1 windings=3 %loadloss=0.798816 %Noloadloss=0.472 normhkva=27.5 wdg=1 conn=wye bus=s_ncctt1263.3 Kv=7.19956 kva=25.0 EmergHKVA=37.5 %r=0.266272 wdg=2 conn=wye bus=s_ncctt1263_bt.1.0 Kv=0.120089 kva=25.0 EmergHKVA=37.5 %r=0.532544 wdg=3 conn=wye bus=s_ncctt1263_bt.0.2 Kv=0.120089 kva=25.0 EmergHKVA=37.5 %r=0.532544 XHL=2.4 XLT=2.4 XHT=1.6

New Transformer.ctrafo(cramaee():s_ncctt453->s_ncctt453_bt) phases=3 windings=2 %loadloss=1.61095 %Noloadloss=0.62 normhkva=110.0 wdg=1 conn=wye Kv=12.47 kva=100.0 EmergHKVA=150.0 %R=0.805475 bus=s_ncctt453 wdg=2 conn=wye Kv=0.48 kva=100.0 EmergHKVA=150.0 %R=0.805475 bus=s_ncctt453_bt XHL=3.29

New Transformer.ctrafo(cramaee():s_ncctt560->s_ncctt560_bt) phases=3 windings=2 %loadloss=1.61095 %Noloadloss=0.62 normhkva=110.0 wdg=1 conn=wye Kv=12.47 kva=100.0 EmergHKVA=150.0 %R=0.805475 bus=s_ncctt560 wdg=2 conn=wye Kv=0.48 kva=100.0 EmergHKVA=150.0 %R=0.805475 bus=s_ncctt560_bt XHL=3.29

New Transformer.ctrafo(cramaee():s_ncctt821->s_ncctt821_bt) phases=3 windings=2 %loadloss=1.61095 %Noloadloss=0.62 normhkva=110.0 wdg=1 conn=wye Kv=12.47 kva=100.0 EmergHKVA=150.0 %R=0.805475 bus=s_ncctt821 wdg=2 conn=wye Kv=0.48 kva=100.0 EmergHKVA=150.0 %R=0.805475 bus=s_ncctt821_bt XHL=3.29

New Transformer.ctrafo(cramaee():s_ncctt1244->s_ncctt1244_bt) phases=1 windings=3 %loadloss=0.798816 %Noloadloss=0.472 normhkva=27.5 wdg=1 conn=wye bus=s_ncctt1244.1 Kv=7.19956 kva=25.0 EmergHKVA=37.5 %r=0.266272 wdg=2 conn=wye bus=s_ncctt1244_bt.1.0 Kv=0.120089 kva=25.0 EmergHKVA=37.5 %r=0.532544 wdg=3 conn=wye bus=s_ncctt1244_bt.0.2 Kv=0.120089 kva=25.0 EmergHKVA=37.5 %r=0.532544 XHL=2.4 XLT=2.4 XHT=1.6

New Transformer.ctrafo(cramaee():s_ncctt855->s_ncctt855_bt) phases=3 windings=2 %loadloss=1.4645 %Noloadloss=0.266 normhkva=550.0 wdg=1 conn=wye Kv=12.47 kva=500.0 EmergHKVA=750.0 %R=0.73225 bus=s_ncctt855 wdg=2 conn=wye Kv=0.48 kva=500.0 EmergHKVA=750.0 %R=0.73225 bus=s_ncctt855_bt XHL=4.36

New Transformer.ctrafo(cramaee():s_ncctt67->s_ncctt67_bt) phases=1 windings=3 %loadloss=0.798816 %Noloadloss=0.472 normhkva=27.5 wdg=1 conn=wye bus=s_ncctt67.1 Kv=7.19956 kva=25.0 EmergHKVA=37.5 %r=0.266272 wdg=2 conn=wye bus=s_ncctt67_bt.1.0 Kv=0.120089 kva=25.0 EmergHKVA=37.5 %r=0.532544 wdg=3 conn=wye bus=s_ncctt67_bt.0.2 Kv=0.120089 kva=25.0 EmergHKVA=37.5 %r=0.532544 XHL=2.4 XLT=2.4 XHT=1.6

New Transformer.ctrafo(cramaee():s_ncctt542->s_ncctt542_bt) phases=1 windings=3 %loadloss=0.798816 %Noloadloss=0.37 normhkva=55.0 wdg=1 conn=wye bus=s_ncctt542.3 Kv=7.19956 kva=50.0 EmergHKVA=75.0 %r=0.266272 wdg=2 conn=wye bus=s_ncctt542_bt.1.0 Kv=0.120089 kva=50.0 EmergHKVA=75.0 %r=0.532544 wdg=3 conn=wye bus=s_ncctt542_bt.0.2 Kv=0.120089 kva=50.0 EmergHKVA=75.0 %r=0.532544 XHL=2.4 XLT=2.4 XHT=1.6

New Transformer.ctrafo(cramaee():s_ncctt213->s_ncctt213_bt) phases=3 windings=2 %loadloss=1.82396 %Noloadloss=0.325 normhkva=330.0 wdg=1 conn=wye Kv=12.47 kva=300.0 EmergHKVA=450.0 %R=0.91198 bus=s_ncctt213 wdg=2 conn=wye Kv=0.48 kva=300.0 EmergHKVA=450.0 %R=0.91198 bus=s_ncctt213_bt XHL=3.76

New Transformer.ctrafo(cramaee():s_ncctt1278->s_ncctt1278_bt) phases=3 windings=2 %loadloss=1.82396 %Noloadloss=0.325 normhkva=330.0 wdg=1 conn=wye Kv=12.47 kva=300.0 EmergHKVA=450.0 %R=0.91198 bus=s_ncctt1278 wdg=2 conn=wye Kv=0.48 kva=300.0 EmergHKVA=450.0 %R=0.91198 bus=s_ncctt1278_bt XHL=3.76

New Transformer.ctrafo(cramaee():s_ncctt1142->s_ncctt1142_bt) phases=1 windings=3 %loadloss=0.798816 %Noloadloss=0.472 normhkva=27.5 wdg=1 conn=wye bus=s_ncctt1142.1 Kv=7.19956 kva=25.0 EmergHKVA=37.5 %r=0.266272 wdg=2 conn=wye bus=s_ncctt1142_bt.1.0 Kv=0.120089 kva=25.0 EmergHKVA=37.5 %r=0.532544 wdg=3 conn=wye bus=s_ncctt1142_bt.0.2 Kv=0.120089 kva=25.0 EmergHKVA=37.5 %r=0.532544 XHL=2.4 XLT=2.4 XHT=1.6

New Transformer.ctrafo(cramaee():s_ncctt829->s_ncctt829_bt) phases=1 windings=3 %loadloss=0.798816 %Noloadloss=0.472 normhkva=27.5 wdg=1 conn=wye bus=s_ncctt829.2 Kv=7.19956 kva=25.0 EmergHKVA=37.5 %r=0.266272 wdg=2 conn=wye bus=s_ncctt829_bt.1.0 Kv=0.120089 kva=25.0 EmergHKVA=37.5 %r=0.532544 wdg=3 conn=wye bus=s_ncctt829_bt.0.2 Kv=0.120089 kva=25.0 EmergHKVA=37.5 %r=0.532544 XHL=2.4 XLT=2.4 XHT=1.6

New Transformer.ctrafo(cramaee():s_ncctt1257->s_ncctt1257_bt) phases=3 windings=2 %loadloss=1.74408 %Noloadloss=0.6 normhkva=82.5 wdg=1 conn=wye Kv=12.47 kva=75.0 EmergHKVA=112.5 %R=0.87204 bus=s_ncctt1257 wdg=2 conn=wye Kv=0.48 kva=75.0 EmergHKVA=112.5 %R=0.87204 bus=s_ncctt1257_bt XHL=3.24

...